[2025-09-18 00:18:29] START suite=cs trace=nutch_phase2_core3
CMD: ./bin/champsim -c -w 20000000 -i 100000000 /home/ho/prefetch_aware_insertion_ptr/traces/cs/nutch_phase2_core3.trace.xz
[VMEM] WARNING: physical memory size is smaller than virtual memory size.

*** ChampSim Multicore Out-of-Order Simulator ***
Warmup Instructions: 20000000
Simulation Instructions: 100000000
Number of CPUs: 1
Page size: 4096

Off-chip DRAM Size: 16 GiB Channels: 1 Width: 64-bit Data Rate: 3205 MT/s
Heartbeat CPU 0 instructions: 10000002 cycles: 2002676 heartbeat IPC: 4.993 cumulative IPC: 4.993 (Simulation time: 00 hr 00 min 31 sec)
Heartbeat CPU 0 instructions: 20000003 cycles: 4006225 heartbeat IPC: 4.991 cumulative IPC: 4.992 (Simulation time: 00 hr 01 min 02 sec)
Warmup finished CPU 0 instructions: 20000003 cycles: 4006225 cumulative IPC: 4.992 (Simulation time: 00 hr 01 min 02 sec)
Warmup complete CPU 0 instructions: 20000003 cycles: 4006225 cumulative IPC: 4.992 (Simulation time: 00 hr 01 min 02 sec)
Heartbeat CPU 0 instructions: 30000003 cycles: 11631723 heartbeat IPC: 1.311 cumulative IPC: 1.311 (Simulation time: 00 hr 01 min 51 sec)
Heartbeat CPU 0 instructions: 40000003 cycles: 20804481 heartbeat IPC: 1.09 cumulative IPC: 1.191 (Simulation time: 00 hr 02 min 47 sec)
Heartbeat CPU 0 instructions: 50000003 cycles: 30581112 heartbeat IPC: 1.023 cumulative IPC: 1.129 (Simulation time: 00 hr 03 min 45 sec)
Heartbeat CPU 0 instructions: 60000003 cycles: 42387775 heartbeat IPC: 0.847 cumulative IPC: 1.042 (Simulation time: 00 hr 04 min 46 sec)
Heartbeat CPU 0 instructions: 70000003 cycles: 60272224 heartbeat IPC: 0.5591 cumulative IPC: 0.8886 (Simulation time: 00 hr 06 min 14 sec)
Heartbeat CPU 0 instructions: 80000003 cycles: 78364825 heartbeat IPC: 0.5527 cumulative IPC: 0.8069 (Simulation time: 00 hr 07 min 47 sec)
Heartbeat CPU 0 instructions: 90000003 cycles: 96484904 heartbeat IPC: 0.5519 cumulative IPC: 0.7569 (Simulation time: 00 hr 09 min 16 sec)
*** Reached end of trace: (0, "/home/ho/prefetch_aware_insertion_ptr/traces/cs/nutch_phase2_core3.trace.xz")
Heartbeat CPU 0 instructions: 100000003 cycles: 114604418 heartbeat IPC: 0.5519 cumulative IPC: 0.7233 (Simulation time: 00 hr 10 min 33 sec)
Heartbeat CPU 0 instructions: 110000003 cycles: 132679011 heartbeat IPC: 0.5533 cumulative IPC: 0.6994 (Simulation time: 00 hr 11 min 51 sec)
Heartbeat CPU 0 instructions: 120000003 cycles: 150783621 heartbeat IPC: 0.5523 cumulative IPC: 0.6813 (Simulation time: 00 hr 13 min 11 sec)
Simulation finished CPU 0 instructions: 100000000 cycles: 146777396 cumulative IPC: 0.6813 (Simulation time: 00 hr 13 min 11 sec)
Simulation complete CPU 0 instructions: 100000000 cycles: 146777396 cumulative IPC: 0.6813 (Simulation time: 00 hr 13 min 11 sec)

ChampSim completed all CPUs

=== Simulation ===
CPU 0 runs /home/ho/prefetch_aware_insertion_ptr/traces/cs/nutch_phase2_core3.trace.xz

Region of Interest Statistics

CPU 0 cumulative IPC: 0.6813 instructions: 100000000 cycles: 146777396
CPU 0 Branch Prediction Accuracy: 99.98% MPKI: 0.00193 Average ROB Occupancy at Mispredict: 1.823e+05
Branch type MPKI
BRANCH_DIRECT_JUMP: 0.00013
BRANCH_INDIRECT: 0.00028
BRANCH_CONDITIONAL: 0.00152
BRANCH_DIRECT_CALL: 0
BRANCH_INDIRECT_CALL: 0
BRANCH_RETURN: 0


====Backend Stall Breakdown====
ROB_STALL: 3633
LQ_STALL: 0
SQ_STALL: 2261


====ROB Stall Breakdown====

== Average ==
ADDR_TRANS: 353
REPLAY_LOAD: 77
NON_REPLAY_LOAD: 69.128204

== Total ==
ADDR_TRANS: 706
REPLAY_LOAD: 231
NON_REPLAY_LOAD: 2696

== Counts ==
ADDR_TRANS: 2
REPLAY_LOAD: 3
NON_REPLAY_LOAD: 39

cpu0->cpu0_STLB TOTAL        ACCESS:        132 HIT:         65 MISS:         67 MSHR_MERGE:          0
cpu0->cpu0_STLB LOAD         ACCESS:        132 HIT:         65 MISS:         67 MSHR_MERGE:          0
cpu0->cpu0_STLB RFO          ACCESS:          0 HIT:          0 MISS:          0 MSHR_MERGE:          0
cpu0->cpu0_STLB PREFETCH     ACCESS:          0 HIT:          0 MISS:          0 MSHR_MERGE:          0
cpu0->cpu0_STLB WRITE        ACCESS:          0 HIT:          0 MISS:          0 MSHR_MERGE:          0
cpu0->cpu0_STLB TRANSLATION  ACCESS:          0 HIT:          0 MISS:          0 MSHR_MERGE:          0
cpu0->cpu0_STLB PREFETCH REQUESTED:          0 ISSUED:          0 USEFUL:          0 USELESS:          0
cpu0->cpu0_STLB AVERAGE MISS LATENCY: 775.7 cycles
cpu0->cpu0_L2C TOTAL        ACCESS:        604 HIT:         18 MISS:        586 MSHR_MERGE:         13
cpu0->cpu0_L2C LOAD         ACCESS:        401 HIT:         16 MISS:        385 MSHR_MERGE:          0
cpu0->cpu0_L2C RFO          ACCESS:         33 HIT:          0 MISS:         33 MSHR_MERGE:          0
cpu0->cpu0_L2C PREFETCH     ACCESS:         31 HIT:          1 MISS:         30 MSHR_MERGE:         13
cpu0->cpu0_L2C WRITE        ACCESS:          0 HIT:          0 MISS:          0 MSHR_MERGE:          0
cpu0->cpu0_L2C TRANSLATION  ACCESS:        139 HIT:          1 MISS:        138 MSHR_MERGE:          0
cpu0->cpu0_L2C PREFETCH REQUESTED:         19 ISSUED:         19 USEFUL:          0 USELESS:          0
cpu0->cpu0_L2C AVERAGE MISS LATENCY: 138.1 cycles
cpu0->cpu0_L1I TOTAL        ACCESS:       2902 HIT:       2551 MISS:        351 MSHR_MERGE:         89
cpu0->cpu0_L1I LOAD         ACCESS:       2902 HIT:       2551 MISS:        351 MSHR_MERGE:         89
cpu0->cpu0_L1I RFO          ACCESS:          0 HIT:          0 MISS:          0 MSHR_MERGE:          0
cpu0->cpu0_L1I PREFETCH     ACCESS:          0 HIT:          0 MISS:          0 MSHR_MERGE:          0
cpu0->cpu0_L1I WRITE        ACCESS:          0 HIT:          0 MISS:          0 MSHR_MERGE:          0
cpu0->cpu0_L1I TRANSLATION  ACCESS:          0 HIT:          0 MISS:          0 MSHR_MERGE:          0
cpu0->cpu0_L1I PREFETCH REQUESTED:          0 ISSUED:          0 USEFUL:          0 USELESS:          0
cpu0->cpu0_L1I AVERAGE MISS LATENCY: 143.5 cycles
cpu0->cpu0_L1D TOTAL        ACCESS:   24517734 HIT:   24517227 MISS:        507 MSHR_MERGE:        184
cpu0->cpu0_L1D LOAD         ACCESS:   23266329 HIT:   23266112 MISS:        217 MSHR_MERGE:         78
cpu0->cpu0_L1D RFO          ACCESS:          0 HIT:          0 MISS:          0 MSHR_MERGE:          0
cpu0->cpu0_L1D PREFETCH     ACCESS:         31 HIT:         10 MISS:         21 MSHR_MERGE:          9
cpu0->cpu0_L1D WRITE        ACCESS:    1251227 HIT:    1251098 MISS:        129 MSHR_MERGE:         96
cpu0->cpu0_L1D TRANSLATION  ACCESS:        147 HIT:          7 MISS:        140 MSHR_MERGE:          1
cpu0->cpu0_L1D PREFETCH REQUESTED:         31 ISSUED:         31 USEFUL:          0 USELESS:          0
cpu0->cpu0_L1D AVERAGE MISS LATENCY: 146.5 cycles
cpu0->cpu0_ITLB TOTAL        ACCESS:       2283 HIT:       2222 MISS:         61 MSHR_MERGE:         34
cpu0->cpu0_ITLB LOAD         ACCESS:       2283 HIT:       2222 MISS:         61 MSHR_MERGE:         34
cpu0->cpu0_ITLB RFO          ACCESS:          0 HIT:          0 MISS:          0 MSHR_MERGE:          0
cpu0->cpu0_ITLB PREFETCH     ACCESS:          0 HIT:          0 MISS:          0 MSHR_MERGE:          0
cpu0->cpu0_ITLB WRITE        ACCESS:          0 HIT:          0 MISS:          0 MSHR_MERGE:          0
cpu0->cpu0_ITLB TRANSLATION  ACCESS:          0 HIT:          0 MISS:          0 MSHR_MERGE:          0
cpu0->cpu0_ITLB PREFETCH REQUESTED:          0 ISSUED:          0 USEFUL:          0 USELESS:          0
cpu0->cpu0_ITLB AVERAGE MISS LATENCY: 704.3 cycles
cpu0->cpu0_DTLB TOTAL        ACCESS:   24517384 HIT:   24517196 MISS:        188 MSHR_MERGE:         83
cpu0->cpu0_DTLB LOAD         ACCESS:   24517384 HIT:   24517196 MISS:        188 MSHR_MERGE:         83
cpu0->cpu0_DTLB RFO          ACCESS:          0 HIT:          0 MISS:          0 MSHR_MERGE:          0
cpu0->cpu0_DTLB PREFETCH     ACCESS:          0 HIT:          0 MISS:          0 MSHR_MERGE:          0
cpu0->cpu0_DTLB WRITE        ACCESS:          0 HIT:          0 MISS:          0 MSHR_MERGE:          0
cpu0->cpu0_DTLB TRANSLATION  ACCESS:          0 HIT:          0 MISS:          0 MSHR_MERGE:          0
cpu0->cpu0_DTLB PREFETCH REQUESTED:          0 ISSUED:          0 USEFUL:          0 USELESS:          0
cpu0->cpu0_DTLB AVERAGE MISS LATENCY: 318.5 cycles
cpu0->LLC TOTAL        ACCESS:        573 HIT:          0 MISS:        573 MSHR_MERGE:          0
cpu0->LLC LOAD         ACCESS:        385 HIT:          0 MISS:        385 MSHR_MERGE:          0
cpu0->LLC RFO          ACCESS:         33 HIT:          0 MISS:         33 MSHR_MERGE:          0
cpu0->LLC PREFETCH     ACCESS:         17 HIT:          0 MISS:         17 MSHR_MERGE:          0
cpu0->LLC WRITE        ACCESS:          0 HIT:          0 MISS:          0 MSHR_MERGE:          0
cpu0->LLC TRANSLATION  ACCESS:        138 HIT:          0 MISS:        138 MSHR_MERGE:          0
cpu0->LLC PREFETCH REQUESTED:          0 ISSUED:          0 USEFUL:          0 USELESS:          0
cpu0->LLC AVERAGE MISS LATENCY: 111.4 cycles

DRAM Statistics

Channel 0 RQ ROW_BUFFER_HIT:          4
  ROW_BUFFER_MISS:        569
  AVG DBUS CONGESTED CYCLE: 2.936
Channel 0 WQ ROW_BUFFER_HIT:          0
  ROW_BUFFER_MISS:          0
  FULL:          0
Channel 0 REFRESHES ISSUED:      12232

==== TLB→Cache/MEM Breakdown (ROI totals across all caches) ====

DTLB
  (case)                                L1I          L1D          L2C          LLC          MEM
  STLB hit → final level                  0           76            0            0           28
---------------------------------------------------------------
  STLB miss resolved @ L1D                0            0            0            0           14
  STLB miss resolved @ L2C                0            0            0            0            3
  STLB miss resolved @ LLC                0            0            0            0            0
  STLB miss resolved @ MEM                0            0            0            0           79

ITLB
  (case)                                L1I          L1D          L2C          LLC          MEM
  STLB hit → final level                  1            0            0            0           21
---------------------------------------------------------------
  STLB miss resolved @ L1D                0            0            0            0            2
  STLB miss resolved @ L2C                0            0            0            0            0
  STLB miss resolved @ LLC                0            0            0            0            0
  STLB miss resolved @ MEM                0            0            0            0           57
[2025-09-18 00:31:40] END   suite=cs trace=nutch_phase2_core3 (rc=0)
