[2025-09-17 19:04:41] START suite=cs trace=classification_phase0_core0
CMD: ./bin/champsim -c -w 20000000 -i 100000000 /home/ho/prefetch_aware_insertion_ptr/traces/cs/classification_phase0_core0.trace.xz
[VMEM] WARNING: physical memory size is smaller than virtual memory size.

*** ChampSim Multicore Out-of-Order Simulator ***
Warmup Instructions: 20000000
Simulation Instructions: 100000000
Number of CPUs: 1
Page size: 4096

Off-chip DRAM Size: 16 GiB Channels: 1 Width: 64-bit Data Rate: 3205 MT/s
Heartbeat CPU 0 instructions: 10000004 cycles: 2908955 heartbeat IPC: 3.438 cumulative IPC: 3.438 (Simulation time: 00 hr 00 min 34 sec)
Warmup finished CPU 0 instructions: 20000002 cycles: 5048516 cumulative IPC: 3.962 (Simulation time: 00 hr 01 min 02 sec)
Warmup complete CPU 0 instructions: 20000002 cycles: 5048516 cumulative IPC: 3.962 (Simulation time: 00 hr 01 min 02 sec)
Heartbeat CPU 0 instructions: 20000007 cycles: 5048517 heartbeat IPC: 4.674 cumulative IPC: 5 (Simulation time: 00 hr 01 min 02 sec)
Heartbeat CPU 0 instructions: 30000008 cycles: 13654037 heartbeat IPC: 1.162 cumulative IPC: 1.162 (Simulation time: 00 hr 02 min 02 sec)
Heartbeat CPU 0 instructions: 40000009 cycles: 23334947 heartbeat IPC: 1.033 cumulative IPC: 1.094 (Simulation time: 00 hr 03 min 04 sec)
Heartbeat CPU 0 instructions: 50000010 cycles: 33138232 heartbeat IPC: 1.02 cumulative IPC: 1.068 (Simulation time: 00 hr 04 min 02 sec)
Heartbeat CPU 0 instructions: 60000010 cycles: 42553692 heartbeat IPC: 1.062 cumulative IPC: 1.067 (Simulation time: 00 hr 04 min 56 sec)
Heartbeat CPU 0 instructions: 70000010 cycles: 52199671 heartbeat IPC: 1.037 cumulative IPC: 1.06 (Simulation time: 00 hr 05 min 48 sec)
Heartbeat CPU 0 instructions: 80000013 cycles: 63364033 heartbeat IPC: 0.8957 cumulative IPC: 1.029 (Simulation time: 00 hr 06 min 45 sec)
DEADLOCK! CPU 0 cycle 66298457
[cpu0_IFETCH] entry:   0 instr_id: 82664378 fetch_issued: true fetch_completed: true scheduled: false executed: false completed: false num_reg_dependent: 1 num_mem_ops: 0 event: 66297924
[cpu0_IFETCH] entry:   1 instr_id: 82664379 fetch_issued: true fetch_completed: true scheduled: false executed: false completed: false num_reg_dependent: 1 num_mem_ops: 0 event: 66297924
[cpu0_IFETCH] entry:   2 instr_id: 82664380 fetch_issued: true fetch_completed: true scheduled: false executed: false completed: false num_reg_dependent: 1 num_mem_ops: 0 event: 66297924
[cpu0_IFETCH] entry:   3 instr_id: 82664381 fetch_issued: true fetch_completed: true scheduled: false executed: false completed: false num_reg_dependent: 1 num_mem_ops: 1 event: 66297924
[cpu0_IFETCH] entry:   4 instr_id: 82664382 fetch_issued: true fetch_completed: true scheduled: false executed: false completed: false num_reg_dependent: 0 num_mem_ops: 0 event: 66297924
[cpu0_IFETCH] entry:   5 instr_id: 82664383 fetch_issued: true fetch_completed: true scheduled: false executed: false completed: false num_reg_dependent: 0 num_mem_ops: 0 event: 66297924
[cpu0_IFETCH] entry:   6 instr_id: 82664384 fetch_issued: true fetch_completed: true scheduled: false executed: false completed: false num_reg_dependent: 0 num_mem_ops: 0 event: 66297924
[cpu0_IFETCH] entry:   7 instr_id: 82664385 fetch_issued: true fetch_completed: true scheduled: false executed: false completed: false num_reg_dependent: 0 num_mem_ops: 0 event: 66297925
[cpu0_IFETCH] entry:   8 instr_id: 82664386 fetch_issued: true fetch_completed: true scheduled: false executed: false completed: false num_reg_dependent: 0 num_mem_ops: 1 event: 66297925
[cpu0_IFETCH] entry:   9 instr_id: 82664387 fetch_issued: true fetch_completed: true scheduled: false executed: false completed: false num_reg_dependent: 0 num_mem_ops: 0 event: 66297925
[cpu0_IFETCH] entry:  10 instr_id: 82664388 fetch_issued: true fetch_completed: true scheduled: false executed: false completed: false num_reg_dependent: 0 num_mem_ops: 0 event: 66297924
[cpu0_IFETCH] entry:  11 instr_id: 82664389 fetch_issued: true fetch_completed: true scheduled: false executed: false completed: false num_reg_dependent: 1 num_mem_ops: 1 event: 66297924
[cpu0_IFETCH] entry:  12 instr_id: 82664390 fetch_issued: true fetch_completed: true scheduled: false executed: false completed: false num_reg_dependent: 0 num_mem_ops: 0 event: 66297924
[cpu0_IFETCH] entry:  13 instr_id: 82664391 fetch_issued: true fetch_completed: true scheduled: false executed: false completed: false num_reg_dependent: 0 num_mem_ops: 0 event: 66297924
[cpu0_IFETCH] entry:  14 instr_id: 82664392 fetch_issued: true fetch_completed: true scheduled: false executed: false completed: false num_reg_dependent: 0 num_mem_ops: 0 event: 66297924
[cpu0_IFETCH] entry:  15 instr_id: 82664393 fetch_issued: true fetch_completed: true scheduled: false executed: false completed: false num_reg_dependent: 1 num_mem_ops: 1 event: 66297926
[cpu0_IFETCH] entry:  16 instr_id: 82664394 fetch_issued: true fetch_completed: true scheduled: false executed: false completed: false num_reg_dependent: 1 num_mem_ops: 1 event: 66297926
[cpu0_IFETCH] entry:  17 instr_id: 82664395 fetch_issued: true fetch_completed: true scheduled: false executed: false completed: false num_reg_dependent: 0 num_mem_ops: 0 event: 66297926
[cpu0_IFETCH] entry:  18 instr_id: 82664396 fetch_issued: true fetch_completed: true scheduled: false executed: false completed: false num_reg_dependent: 0 num_mem_ops: 0 event: 66297926
[cpu0_IFETCH] entry:  19 instr_id: 82664397 fetch_issued: true fetch_completed: true scheduled: false executed: false completed: false num_reg_dependent: 0 num_mem_ops: 0 event: 66297926
[cpu0_IFETCH] entry:  20 instr_id: 82664398 fetch_issued: true fetch_completed: true scheduled: false executed: false completed: false num_reg_dependent: 0 num_mem_ops: 0 event: 66297926
[cpu0_IFETCH] entry:  21 instr_id: 82664399 fetch_issued: true fetch_completed: true scheduled: false executed: false completed: false num_reg_dependent: 0 num_mem_ops: 1 event: 66297926
[cpu0_IFETCH] entry:  22 instr_id: 82664400 fetch_issued: true fetch_completed: true scheduled: false executed: false completed: false num_reg_dependent: 0 num_mem_ops: 1 event: 66297926
[cpu0_IFETCH] entry:  23 instr_id: 82664401 fetch_issued: true fetch_completed: true scheduled: false executed: false completed: false num_reg_dependent: 0 num_mem_ops: 0 event: 66297927
[cpu0_IFETCH] entry:  24 instr_id: 82664402 fetch_issued: true fetch_completed: true scheduled: false executed: false completed: false num_reg_dependent: 0 num_mem_ops: 1 event: 66297927
[cpu0_IFETCH] entry:  25 instr_id: 82664403 fetch_issued: true fetch_completed: true scheduled: false executed: false completed: false num_reg_dependent: 0 num_mem_ops: 0 event: 66297927
[cpu0_IFETCH] entry:  26 instr_id: 82664404 fetch_issued: true fetch_completed: true scheduled: false executed: false completed: false num_reg_dependent: 0 num_mem_ops: 1 event: 66297927
[cpu0_IFETCH] entry:  27 instr_id: 82664405 fetch_issued: true fetch_completed: true scheduled: false executed: false completed: false num_reg_dependent: 0 num_mem_ops: 1 event: 66297927
[cpu0_IFETCH] entry:  28 instr_id: 82664406 fetch_issued: true fetch_completed: true scheduled: false executed: false completed: false num_reg_dependent: 0 num_mem_ops: 0 event: 66297927
[cpu0_IFETCH] entry:  29 instr_id: 82664407 fetch_issued: true fetch_completed: true scheduled: false executed: false completed: false num_reg_dependent: 0 num_mem_ops: 0 event: 66297927
[cpu0_IFETCH] entry:  30 instr_id: 82664408 fetch_issued: true fetch_completed: true scheduled: false executed: false completed: false num_reg_dependent: 0 num_mem_ops: 1 event: 66297927
[cpu0_IFETCH] entry:  31 instr_id: 82664409 fetch_issued: true fetch_completed: true scheduled: false executed: false completed: false num_reg_dependent: 0 num_mem_ops: 0 event: 66297928
[cpu0_IFETCH] entry:  32 instr_id: 82664410 fetch_issued: true fetch_completed: true scheduled: false executed: false completed: false num_reg_dependent: 0 num_mem_ops: 0 event: 66297928
[cpu0_IFETCH] entry:  33 instr_id: 82664411 fetch_issued: true fetch_completed: true scheduled: false executed: false completed: false num_reg_dependent: 0 num_mem_ops: 1 event: 66297928
[cpu0_IFETCH] entry:  34 instr_id: 82664412 fetch_issued: true fetch_completed: true scheduled: false executed: false completed: false num_reg_dependent: 0 num_mem_ops: 0 event: 66297928
[cpu0_IFETCH] entry:  35 instr_id: 82664413 fetch_issued: true fetch_completed: true scheduled: false executed: false completed: false num_reg_dependent: 0 num_mem_ops: 0 event: 66297929
[cpu0_IFETCH] entry:  36 instr_id: 82664414 fetch_issued: true fetch_completed: true scheduled: false executed: false completed: false num_reg_dependent: 0 num_mem_ops: 0 event: 66297929
[cpu0_IFETCH] entry:  37 instr_id: 82664415 fetch_issued: true fetch_completed: true scheduled: false executed: false completed: false num_reg_dependent: 0 num_mem_ops: 0 event: 66297929
[cpu0_IFETCH] entry:  38 instr_id: 82664416 fetch_issued: true fetch_completed: true scheduled: false executed: false completed: false num_reg_dependent: 0 num_mem_ops: 0 event: 66297929
[cpu0_IFETCH] entry:  39 instr_id: 82664417 fetch_issued: true fetch_completed: true scheduled: false executed: false completed: false num_reg_dependent: 0 num_mem_ops: 0 event: 66297929
[cpu0_IFETCH] entry:  40 instr_id: 82664418 fetch_issued: true fetch_completed: true scheduled: false executed: false completed: false num_reg_dependent: 0 num_mem_ops: 1 event: 66297929
[cpu0_IFETCH] entry:  41 instr_id: 82664419 fetch_issued: true fetch_completed: true scheduled: false executed: false completed: false num_reg_dependent: 0 num_mem_ops: 1 event: 66297929
[cpu0_IFETCH] entry:  42 instr_id: 82664420 fetch_issued: true fetch_completed: true scheduled: false executed: false completed: false num_reg_dependent: 0 num_mem_ops: 0 event: 66297929
[cpu0_IFETCH] entry:  43 instr_id: 82664421 fetch_issued: true fetch_completed: true scheduled: false executed: false completed: false num_reg_dependent: 0 num_mem_ops: 0 event: 66297930
[cpu0_IFETCH] entry:  44 instr_id: 82664422 fetch_issued: true fetch_completed: true scheduled: false executed: false completed: false num_reg_dependent: 0 num_mem_ops: 0 event: 66297930
[cpu0_IFETCH] entry:  45 instr_id: 82664423 fetch_issued: true fetch_completed: true scheduled: false executed: false completed: false num_reg_dependent: 0 num_mem_ops: 0 event: 66297930
[cpu0_IFETCH] entry:  46 instr_id: 82664424 fetch_issued: true fetch_completed: true scheduled: false executed: false completed: false num_reg_dependent: 0 num_mem_ops: 0 event: 66297929
[cpu0_IFETCH] entry:  47 instr_id: 82664425 fetch_issued: true fetch_completed: true scheduled: false executed: false completed: false num_reg_dependent: 0 num_mem_ops: 1 event: 66297929
[cpu0_IFETCH] entry:  48 instr_id: 82664426 fetch_issued: true fetch_completed: true scheduled: false executed: false completed: false num_reg_dependent: 0 num_mem_ops: 1 event: 66297929
[cpu0_IFETCH] entry:  49 instr_id: 82664427 fetch_issued: true fetch_completed: true scheduled: false executed: false completed: false num_reg_dependent: 0 num_mem_ops: 1 event: 66297929
[cpu0_IFETCH] entry:  50 instr_id: 82664428 fetch_issued: true fetch_completed: true scheduled: false executed: false completed: false num_reg_dependent: 0 num_mem_ops: 1 event: 66297929
[cpu0_IFETCH] entry:  51 instr_id: 82664429 fetch_issued: true fetch_completed: true scheduled: false executed: false completed: false num_reg_dependent: 0 num_mem_ops: 0 event: 66297930
[cpu0_IFETCH] entry:  52 instr_id: 82664430 fetch_issued: true fetch_completed: true scheduled: false executed: false completed: false num_reg_dependent: 0 num_mem_ops: 0 event: 66297930
[cpu0_IFETCH] entry:  53 instr_id: 82664431 fetch_issued: true fetch_completed: true scheduled: false executed: false completed: false num_reg_dependent: 0 num_mem_ops: 0 event: 66297930
[cpu0_IFETCH] entry:  54 instr_id: 82664432 fetch_issued: true fetch_completed: true scheduled: false executed: false completed: false num_reg_dependent: 0 num_mem_ops: 0 event: 66297930
[cpu0_IFETCH] entry:  55 instr_id: 82664433 fetch_issued: true fetch_completed: true scheduled: false executed: false completed: false num_reg_dependent: 0 num_mem_ops: 0 event: 66297930
[cpu0_IFETCH] entry:  56 instr_id: 82664434 fetch_issued: true fetch_completed: true scheduled: false executed: false completed: false num_reg_dependent: 0 num_mem_ops: 0 event: 66297930
[cpu0_IFETCH] entry:  57 instr_id: 82664435 fetch_issued: true fetch_completed: true scheduled: false executed: false completed: false num_reg_dependent: 0 num_mem_ops: 0 event: 66297930
[cpu0_IFETCH] entry:  58 instr_id: 82664436 fetch_issued: true fetch_completed: true scheduled: false executed: false completed: false num_reg_dependent: 0 num_mem_ops: 0 event: 66297930
[cpu0_IFETCH] entry:  59 instr_id: 82664437 fetch_issued: true fetch_completed: true scheduled: false executed: false completed: false num_reg_dependent: 0 num_mem_ops: 0 event: 66297931
[cpu0_IFETCH] entry:  60 instr_id: 82664438 fetch_issued: true fetch_completed: true scheduled: false executed: false completed: false num_reg_dependent: 0 num_mem_ops: 0 event: 66297931
[cpu0_IFETCH] entry:  61 instr_id: 82664439 fetch_issued: true fetch_completed: true scheduled: false executed: false completed: false num_reg_dependent: 0 num_mem_ops: 0 event: 66297931
[cpu0_IFETCH] entry:  62 instr_id: 82664440 fetch_issued: true fetch_completed: true scheduled: false executed: false completed: false num_reg_dependent: 0 num_mem_ops: 1 event: 66297931
[cpu0_IFETCH] entry:  63 instr_id: 82664441 fetch_issued: true fetch_completed: true scheduled: false executed: false completed: false num_reg_dependent: 0 num_mem_ops: 0 event: 66297931

[cpu0_DECODE] entry:   0 instr_id: 82664268 fetch_issued: true fetch_completed: true scheduled: false executed: false completed: false num_reg_dependent: 1 num_mem_ops: 1 event: 66297917
[cpu0_DECODE] entry:   1 instr_id: 82664269 fetch_issued: true fetch_completed: true scheduled: false executed: false completed: false num_reg_dependent: 0 num_mem_ops: 1 event: 66297918
[cpu0_DECODE] entry:   2 instr_id: 82664270 fetch_issued: true fetch_completed: true scheduled: false executed: false completed: false num_reg_dependent: 0 num_mem_ops: 0 event: 66297918
[cpu0_DECODE] entry:   3 instr_id: 82664271 fetch_issued: true fetch_completed: true scheduled: false executed: false completed: false num_reg_dependent: 0 num_mem_ops: 0 event: 66297918
[cpu0_DECODE] entry:   4 instr_id: 82664272 fetch_issued: true fetch_completed: true scheduled: false executed: false completed: false num_reg_dependent: 0 num_mem_ops: 0 event: 66297918
[cpu0_DECODE] entry:   5 instr_id: 82664273 fetch_issued: true fetch_completed: true scheduled: false executed: false completed: false num_reg_dependent: 0 num_mem_ops: 0 event: 66297918
[cpu0_DECODE] entry:   6 instr_id: 82664274 fetch_issued: true fetch_completed: true scheduled: false executed: false completed: false num_reg_dependent: 0 num_mem_ops: 0 event: 66297918
[cpu0_DECODE] entry:   7 instr_id: 82664275 fetch_issued: true fetch_completed: true scheduled: false executed: false completed: false num_reg_dependent: 1 num_mem_ops: 1 event: 66297918
[cpu0_DECODE] entry:   8 instr_id: 82664276 fetch_issued: true fetch_completed: true scheduled: false executed: false completed: false num_reg_dependent: 0 num_mem_ops: 0 event: 66297918
[cpu0_DECODE] entry:   9 instr_id: 82664277 fetch_issued: true fetch_completed: true scheduled: false executed: false completed: false num_reg_dependent: 0 num_mem_ops: 0 event: 66297919
[cpu0_DECODE] entry:  10 instr_id: 82664278 fetch_issued: true fetch_completed: true scheduled: false executed: false completed: false num_reg_dependent: 0 num_mem_ops: 0 event: 66297919
[cpu0_DECODE] entry:  11 instr_id: 82664279 fetch_issued: true fetch_completed: true scheduled: false executed: false completed: false num_reg_dependent: 0 num_mem_ops: 0 event: 66297919
[cpu0_DECODE] entry:  12 instr_id: 82664280 fetch_issued: true fetch_completed: true scheduled: false executed: false completed: false num_reg_dependent: 0 num_mem_ops: 0 event: 66297919
[cpu0_DECODE] entry:  13 instr_id: 82664281 fetch_issued: true fetch_completed: true scheduled: false executed: false completed: false num_reg_dependent: 0 num_mem_ops: 0 event: 66297919
[cpu0_DECODE] entry:  14 instr_id: 82664282 fetch_issued: true fetch_completed: true scheduled: false executed: false completed: false num_reg_dependent: 0 num_mem_ops: 0 event: 66297919
[cpu0_DECODE] entry:  15 instr_id: 82664283 fetch_issued: true fetch_completed: true scheduled: false executed: false completed: false num_reg_dependent: 0 num_mem_ops: 0 event: 66297919
[cpu0_DECODE] entry:  16 instr_id: 82664284 fetch_issued: true fetch_completed: true scheduled: false executed: false completed: false num_reg_dependent: 0 num_mem_ops: 0 event: 66297919
[cpu0_DECODE] entry:  17 instr_id: 82664285 fetch_issued: true fetch_completed: true scheduled: false executed: false completed: false num_reg_dependent: 0 num_mem_ops: 0 event: 66297920
[cpu0_DECODE] entry:  18 instr_id: 82664286 fetch_issued: true fetch_completed: true scheduled: false executed: false completed: false num_reg_dependent: 0 num_mem_ops: 1 event: 66297920
[cpu0_DECODE] entry:  19 instr_id: 82664287 fetch_issued: true fetch_completed: true scheduled: false executed: false completed: false num_reg_dependent: 0 num_mem_ops: 1 event: 66297920
[cpu0_DECODE] entry:  20 instr_id: 82664288 fetch_issued: true fetch_completed: true scheduled: false executed: false completed: false num_reg_dependent: 0 num_mem_ops: 0 event: 66297920
[cpu0_DECODE] entry:  21 instr_id: 82664289 fetch_issued: true fetch_completed: true scheduled: false executed: false completed: false num_reg_dependent: 0 num_mem_ops: 1 event: 66297920
[cpu0_DECODE] entry:  22 instr_id: 82664290 fetch_issued: true fetch_completed: true scheduled: false executed: false completed: false num_reg_dependent: 0 num_mem_ops: 1 event: 66297920
[cpu0_DECODE] entry:  23 instr_id: 82664291 fetch_issued: true fetch_completed: true scheduled: false executed: false completed: false num_reg_dependent: 0 num_mem_ops: 0 event: 66297920
[cpu0_DECODE] entry:  24 instr_id: 82664292 fetch_issued: true fetch_completed: true scheduled: false executed: false completed: false num_reg_dependent: 0 num_mem_ops: 0 event: 66297920
[cpu0_DECODE] entry:  25 instr_id: 82664293 fetch_issued: true fetch_completed: true scheduled: false executed: false completed: false num_reg_dependent: 0 num_mem_ops: 0 event: 66297921
[cpu0_DECODE] entry:  26 instr_id: 82664294 fetch_issued: true fetch_completed: true scheduled: false executed: false completed: false num_reg_dependent: 0 num_mem_ops: 0 event: 66297921
[cpu0_DECODE] entry:  27 instr_id: 82664295 fetch_issued: true fetch_completed: true scheduled: false executed: false completed: false num_reg_dependent: 0 num_mem_ops: 0 event: 66297921
[cpu0_DECODE] entry:  28 instr_id: 82664296 fetch_issued: true fetch_completed: true scheduled: false executed: false completed: false num_reg_dependent: 0 num_mem_ops: 1 event: 66297921
[cpu0_DECODE] entry:  29 instr_id: 82664297 fetch_issued: true fetch_completed: true scheduled: false executed: false completed: false num_reg_dependent: 0 num_mem_ops: 0 event: 66297921
[cpu0_DECODE] entry:  30 instr_id: 82664298 fetch_issued: true fetch_completed: true scheduled: false executed: false completed: false num_reg_dependent: 0 num_mem_ops: 0 event: 66297921
[cpu0_DECODE] entry:  31 instr_id: 82664300 fetch_issued: true fetch_completed: true scheduled: false executed: false completed: false num_reg_dependent: 0 num_mem_ops: 0 event: 66297921
[cpu0_DECODE] entry:  32 instr_id: 82664301 fetch_issued: true fetch_completed: true scheduled: false executed: false completed: false num_reg_dependent: 0 num_mem_ops: 0 event: 66297922
[cpu0_DECODE] entry:  33 instr_id: 82664302 fetch_issued: true fetch_completed: true scheduled: false executed: false completed: false num_reg_dependent: 0 num_mem_ops: 1 event: 66297922
[cpu0_DECODE] entry:  34 instr_id: 82664303 fetch_issued: true fetch_completed: true scheduled: false executed: false completed: false num_reg_dependent: 0 num_mem_ops: 0 event: 66297922
[cpu0_DECODE] entry:  35 instr_id: 82664304 fetch_issued: true fetch_completed: true scheduled: false executed: false completed: false num_reg_dependent: 0 num_mem_ops: 0 event: 66297922
[cpu0_DECODE] entry:  36 instr_id: 82664305 fetch_issued: true fetch_completed: true scheduled: false executed: false completed: false num_reg_dependent: 1 num_mem_ops: 0 event: 66297922
[cpu0_DECODE] entry:  37 instr_id: 82664306 fetch_issued: true fetch_completed: true scheduled: false executed: false completed: false num_reg_dependent: 0 num_mem_ops: 0 event: 66297922
[cpu0_DECODE] entry:  38 instr_id: 82664307 fetch_issued: true fetch_completed: true scheduled: false executed: false completed: false num_reg_dependent: 0 num_mem_ops: 0 event: 66297922
[cpu0_DECODE] entry:  39 instr_id: 82664308 fetch_issued: true fetch_completed: true scheduled: false executed: false completed: false num_reg_dependent: 1 num_mem_ops: 0 event: 66297922
[cpu0_DECODE] entry:  40 instr_id: 82664309 fetch_issued: true fetch_completed: true scheduled: false executed: false completed: false num_reg_dependent: 1 num_mem_ops: 1 event: 66297923
[cpu0_DECODE] entry:  41 instr_id: 82664310 fetch_issued: true fetch_completed: true scheduled: false executed: false completed: false num_reg_dependent: 0 num_mem_ops: 0 event: 66297923
[cpu0_DECODE] entry:  42 instr_id: 82664311 fetch_issued: true fetch_completed: true scheduled: false executed: false completed: false num_reg_dependent: 0 num_mem_ops: 0 event: 66297923
[cpu0_DECODE] entry:  43 instr_id: 82664312 fetch_issued: true fetch_completed: true scheduled: false executed: false completed: false num_reg_dependent: 0 num_mem_ops: 1 event: 66297923
[cpu0_DECODE] entry:  44 instr_id: 82664313 fetch_issued: true fetch_completed: true scheduled: false executed: false completed: false num_reg_dependent: 0 num_mem_ops: 0 event: 66297923
[cpu0_DECODE] entry:  45 instr_id: 82664314 fetch_issued: true fetch_completed: true scheduled: false executed: false completed: false num_reg_dependent: 0 num_mem_ops: 0 event: 66297923
[cpu0_DECODE] entry:  46 instr_id: 82664315 fetch_issued: true fetch_completed: true scheduled: false executed: false completed: false num_reg_dependent: 0 num_mem_ops: 1 event: 66297923
[cpu0_DECODE] entry:  47 instr_id: 82664316 fetch_issued: true fetch_completed: true scheduled: false executed: false completed: false num_reg_dependent: 0 num_mem_ops: 0 event: 66297923
[cpu0_DECODE] entry:  48 instr_id: 82664317 fetch_issued: true fetch_completed: true scheduled: false executed: false completed: false num_reg_dependent: 0 num_mem_ops: 0 event: 66297924
[cpu0_DECODE] entry:  49 instr_id: 82664318 fetch_issued: true fetch_completed: true scheduled: false executed: false completed: false num_reg_dependent: 0 num_mem_ops: 0 event: 66297924
[cpu0_DECODE] entry:  50 instr_id: 82664319 fetch_issued: true fetch_completed: true scheduled: false executed: false completed: false num_reg_dependent: 0 num_mem_ops: 0 event: 66297924
[cpu0_DECODE] entry:  51 instr_id: 82664320 fetch_issued: true fetch_completed: true scheduled: false executed: false completed: false num_reg_dependent: 0 num_mem_ops: 1 event: 66297924
[cpu0_DECODE] entry:  52 instr_id: 82664321 fetch_issued: true fetch_completed: true scheduled: false executed: false completed: false num_reg_dependent: 0 num_mem_ops: 1 event: 66297924
[cpu0_DECODE] entry:  53 instr_id: 82664322 fetch_issued: true fetch_completed: true scheduled: false executed: false completed: false num_reg_dependent: 0 num_mem_ops: 0 event: 66297924
[cpu0_DECODE] entry:  54 instr_id: 82664323 fetch_issued: true fetch_completed: true scheduled: false executed: false completed: false num_reg_dependent: 0 num_mem_ops: 0 event: 66297924
[cpu0_DECODE] entry:  55 instr_id: 82664324 fetch_issued: true fetch_completed: true scheduled: false executed: false completed: false num_reg_dependent: 0 num_mem_ops: 0 event: 66297924
[cpu0_DECODE] entry:  56 instr_id: 82664325 fetch_issued: true fetch_completed: true scheduled: false executed: false completed: false num_reg_dependent: 0 num_mem_ops: 0 event: 66297925
[cpu0_DECODE] entry:  57 instr_id: 82664326 fetch_issued: true fetch_completed: true scheduled: false executed: false completed: false num_reg_dependent: 0 num_mem_ops: 0 event: 66297925
[cpu0_DECODE] entry:  58 instr_id: 82664327 fetch_issued: true fetch_completed: true scheduled: false executed: false completed: false num_reg_dependent: 0 num_mem_ops: 1 event: 66297925
[cpu0_DECODE] entry:  59 instr_id: 82664328 fetch_issued: true fetch_completed: true scheduled: false executed: false completed: false num_reg_dependent: 0 num_mem_ops: 0 event: 66297925
[cpu0_DECODE] entry:  60 instr_id: 82664329 fetch_issued: true fetch_completed: true scheduled: false executed: false completed: false num_reg_dependent: 0 num_mem_ops: 0 event: 66297925
[cpu0_DECODE] entry:  61 instr_id: 82664330 fetch_issued: true fetch_completed: true scheduled: false executed: false completed: false num_reg_dependent: 0 num_mem_ops: 0 event: 66297925
[cpu0_DECODE] entry:  62 instr_id: 82664331 fetch_issued: true fetch_completed: true scheduled: false executed: false completed: false num_reg_dependent: 0 num_mem_ops: 1 event: 66297925
[cpu0_DECODE] entry:  63 instr_id: 82664332 fetch_issued: true fetch_completed: true scheduled: false executed: false completed: false num_reg_dependent: 0 num_mem_ops: 1 event: 66297925
[cpu0_DECODE] entry:  64 instr_id: 82664333 fetch_issued: true fetch_completed: true scheduled: false executed: false completed: false num_reg_dependent: 0 num_mem_ops: 1 event: 66297926
[cpu0_DECODE] entry:  65 instr_id: 82664334 fetch_issued: true fetch_completed: true scheduled: false executed: false completed: false num_reg_dependent: 0 num_mem_ops: 0 event: 66297926
[cpu0_DECODE] entry:  66 instr_id: 82664335 fetch_issued: true fetch_completed: true scheduled: false executed: false completed: false num_reg_dependent: 0 num_mem_ops: 0 event: 66297926
[cpu0_DECODE] entry:  67 instr_id: 82664336 fetch_issued: true fetch_completed: true scheduled: false executed: false completed: false num_reg_dependent: 0 num_mem_ops: 1 event: 66297926
[cpu0_DECODE] entry:  68 instr_id: 82664337 fetch_issued: true fetch_completed: true scheduled: false executed: false completed: false num_reg_dependent: 0 num_mem_ops: 1 event: 66297926
[cpu0_DECODE] entry:  69 instr_id: 82664338 fetch_issued: true fetch_completed: true scheduled: false executed: false completed: false num_reg_dependent: 0 num_mem_ops: 1 event: 66297926
[cpu0_DECODE] entry:  70 instr_id: 82664339 fetch_issued: true fetch_completed: true scheduled: false executed: false completed: false num_reg_dependent: 0 num_mem_ops: 1 event: 66297926
[cpu0_DECODE] entry:  71 instr_id: 82664340 fetch_issued: true fetch_completed: true scheduled: false executed: false completed: false num_reg_dependent: 0 num_mem_ops: 0 event: 66297926
[cpu0_DECODE] entry:  72 instr_id: 82664341 fetch_issued: true fetch_completed: true scheduled: false executed: false completed: false num_reg_dependent: 0 num_mem_ops: 0 event: 66297927
[cpu0_DECODE] entry:  73 instr_id: 82664342 fetch_issued: true fetch_completed: true scheduled: false executed: false completed: false num_reg_dependent: 0 num_mem_ops: 0 event: 66297927
[cpu0_DECODE] entry:  74 instr_id: 82664343 fetch_issued: true fetch_completed: true scheduled: false executed: false completed: false num_reg_dependent: 0 num_mem_ops: 0 event: 66297927
[cpu0_DECODE] entry:  75 instr_id: 82664369 fetch_issued: true fetch_completed: true scheduled: false executed: false completed: false num_reg_dependent: 0 num_mem_ops: 0 event: 66297930
[cpu0_DECODE] entry:  76 instr_id: 82664370 fetch_issued: true fetch_completed: true scheduled: false executed: false completed: false num_reg_dependent: 0 num_mem_ops: 0 event: 66297930
[cpu0_DECODE] entry:  77 instr_id: 82664371 fetch_issued: true fetch_completed: true scheduled: false executed: false completed: false num_reg_dependent: 0 num_mem_ops: 1 event: 66297930

[cpu0_DISPATCH] entry:   0 instr_id: 82664236 fetch_issued: true fetch_completed: true scheduled: false executed: false completed: false num_reg_dependent: 0 num_mem_ops: 0 event: 66297930
[cpu0_DISPATCH] entry:   1 instr_id: 82664237 fetch_issued: true fetch_completed: true scheduled: false executed: false completed: false num_reg_dependent: 0 num_mem_ops: 1 event: 66297930
[cpu0_DISPATCH] entry:   2 instr_id: 82664238 fetch_issued: true fetch_completed: true scheduled: false executed: false completed: false num_reg_dependent: 0 num_mem_ops: 0 event: 66297930
[cpu0_DISPATCH] entry:   3 instr_id: 82664239 fetch_issued: true fetch_completed: true scheduled: false executed: false completed: false num_reg_dependent: 0 num_mem_ops: 0 event: 66297930
[cpu0_DISPATCH] entry:   4 instr_id: 82664240 fetch_issued: true fetch_completed: true scheduled: false executed: false completed: false num_reg_dependent: 0 num_mem_ops: 1 event: 66297931
[cpu0_DISPATCH] entry:   5 instr_id: 82664241 fetch_issued: true fetch_completed: true scheduled: false executed: false completed: false num_reg_dependent: 0 num_mem_ops: 1 event: 66297931
[cpu0_DISPATCH] entry:   6 instr_id: 82664242 fetch_issued: true fetch_completed: true scheduled: false executed: false completed: false num_reg_dependent: 0 num_mem_ops: 1 event: 66297931
[cpu0_DISPATCH] entry:   7 instr_id: 82664243 fetch_issued: true fetch_completed: true scheduled: false executed: false completed: false num_reg_dependent: 0 num_mem_ops: 1 event: 66297931
[cpu0_DISPATCH] entry:   8 instr_id: 82664244 fetch_issued: true fetch_completed: true scheduled: false executed: false completed: false num_reg_dependent: 0 num_mem_ops: 1 event: 66297932
[cpu0_DISPATCH] entry:   9 instr_id: 82664245 fetch_issued: true fetch_completed: true scheduled: false executed: false completed: false num_reg_dependent: 0 num_mem_ops: 0 event: 66297932
[cpu0_DISPATCH] entry:  10 instr_id: 82664246 fetch_issued: true fetch_completed: true scheduled: false executed: false completed: false num_reg_dependent: 0 num_mem_ops: 0 event: 66297932
[cpu0_DISPATCH] entry:  11 instr_id: 82664247 fetch_issued: true fetch_completed: true scheduled: false executed: false completed: false num_reg_dependent: 0 num_mem_ops: 0 event: 66297932
[cpu0_DISPATCH] entry:  12 instr_id: 82664248 fetch_issued: true fetch_completed: true scheduled: false executed: false completed: false num_reg_dependent: 0 num_mem_ops: 1 event: 66297933
[cpu0_DISPATCH] entry:  13 instr_id: 82664249 fetch_issued: true fetch_completed: true scheduled: false executed: false completed: false num_reg_dependent: 0 num_mem_ops: 0 event: 66297933
[cpu0_DISPATCH] entry:  14 instr_id: 82664250 fetch_issued: true fetch_completed: true scheduled: false executed: false completed: false num_reg_dependent: 0 num_mem_ops: 1 event: 66297933
[cpu0_DISPATCH] entry:  15 instr_id: 82664251 fetch_issued: true fetch_completed: true scheduled: false executed: false completed: false num_reg_dependent: 0 num_mem_ops: 0 event: 66297933
[cpu0_DISPATCH] entry:  16 instr_id: 82664252 fetch_issued: true fetch_completed: true scheduled: false executed: false completed: false num_reg_dependent: 0 num_mem_ops: 0 event: 66297934
[cpu0_DISPATCH] entry:  17 instr_id: 82664253 fetch_issued: true fetch_completed: true scheduled: false executed: false completed: false num_reg_dependent: 0 num_mem_ops: 1 event: 66297934
[cpu0_DISPATCH] entry:  18 instr_id: 82664254 fetch_issued: true fetch_completed: true scheduled: false executed: false completed: false num_reg_dependent: 0 num_mem_ops: 0 event: 66297934
[cpu0_DISPATCH] entry:  19 instr_id: 82664255 fetch_issued: true fetch_completed: true scheduled: false executed: false completed: false num_reg_dependent: 0 num_mem_ops: 0 event: 66297934
[cpu0_DISPATCH] entry:  20 instr_id: 82664256 fetch_issued: true fetch_completed: true scheduled: false executed: false completed: false num_reg_dependent: 0 num_mem_ops: 1 event: 66297935
[cpu0_DISPATCH] entry:  21 instr_id: 82664257 fetch_issued: true fetch_completed: true scheduled: false executed: false completed: false num_reg_dependent: 0 num_mem_ops: 0 event: 66297935
[cpu0_DISPATCH] entry:  22 instr_id: 82664258 fetch_issued: true fetch_completed: true scheduled: false executed: false completed: false num_reg_dependent: 0 num_mem_ops: 1 event: 66297935
[cpu0_DISPATCH] entry:  23 instr_id: 82664259 fetch_issued: true fetch_completed: true scheduled: false executed: false completed: false num_reg_dependent: 0 num_mem_ops: 1 event: 66297935
[cpu0_DISPATCH] entry:  24 instr_id: 82664260 fetch_issued: true fetch_completed: true scheduled: false executed: false completed: false num_reg_dependent: 0 num_mem_ops: 1 event: 66297936
[cpu0_DISPATCH] entry:  25 instr_id: 82664261 fetch_issued: true fetch_completed: true scheduled: false executed: false completed: false num_reg_dependent: 0 num_mem_ops: 0 event: 66297936
[cpu0_DISPATCH] entry:  26 instr_id: 82664262 fetch_issued: true fetch_completed: true scheduled: false executed: false completed: false num_reg_dependent: 0 num_mem_ops: 0 event: 66297936
[cpu0_DISPATCH] entry:  27 instr_id: 82664263 fetch_issued: true fetch_completed: true scheduled: false executed: false completed: false num_reg_dependent: 0 num_mem_ops: 1 event: 66297936
[cpu0_DISPATCH] entry:  28 instr_id: 82664264 fetch_issued: true fetch_completed: true scheduled: false executed: false completed: false num_reg_dependent: 0 num_mem_ops: 1 event: 66297937
[cpu0_DISPATCH] entry:  29 instr_id: 82664265 fetch_issued: true fetch_completed: true scheduled: false executed: false completed: false num_reg_dependent: 0 num_mem_ops: 1 event: 66297937
[cpu0_DISPATCH] entry:  30 instr_id: 82664266 fetch_issued: true fetch_completed: true scheduled: false executed: false completed: false num_reg_dependent: 0 num_mem_ops: 1 event: 66297937
[cpu0_DISPATCH] entry:  31 instr_id: 82664267 fetch_issued: true fetch_completed: true scheduled: false executed: false completed: false num_reg_dependent: 0 num_mem_ops: 1 event: 66297937

[cpu0_ROB] entry:   0 instr_id: 82663884 fetch_issued: true fetch_completed: true scheduled: true executed: true completed: false num_reg_dependent: 0 num_mem_ops: 1 event: 66297875
[cpu0_ROB] entry:   1 instr_id: 82663885 fetch_issued: true fetch_completed: true scheduled: true executed: true completed: true num_reg_dependent: 0 num_mem_ops: 0 event: 66297875
[cpu0_ROB] entry:   2 instr_id: 82663886 fetch_issued: true fetch_completed: true scheduled: true executed: true completed: true num_reg_dependent: 0 num_mem_ops: 0 event: 66297895
[cpu0_ROB] entry:   3 instr_id: 82663887 fetch_issued: true fetch_completed: true scheduled: true executed: true completed: true num_reg_dependent: 0 num_mem_ops: 0 event: 66297895
[cpu0_ROB] entry:   4 instr_id: 82663888 fetch_issued: true fetch_completed: true scheduled: true executed: true completed: true num_reg_dependent: 0 num_mem_ops: 0 event: 66297813
[cpu0_ROB] entry:   5 instr_id: 82663889 fetch_issued: true fetch_completed: true scheduled: true executed: true completed: true num_reg_dependent: 0 num_mem_ops: 0 event: 66297813
[cpu0_ROB] entry:   6 instr_id: 82663890 fetch_issued: true fetch_completed: true scheduled: true executed: true completed: true num_reg_dependent: 0 num_mem_ops: 0 event: 66297814
[cpu0_ROB] entry:   7 instr_id: 82663891 fetch_issued: true fetch_completed: true scheduled: true executed: true completed: true num_reg_dependent: 0 num_mem_ops: 0 event: 66297815
[cpu0_ROB] entry:   8 instr_id: 82663892 fetch_issued: true fetch_completed: true scheduled: true executed: true completed: true num_reg_dependent: 0 num_mem_ops: 0 event: 66297841
[cpu0_ROB] entry:   9 instr_id: 82663893 fetch_issued: true fetch_completed: true scheduled: true executed: true completed: true num_reg_dependent: 0 num_mem_ops: 0 event: 66297841
[cpu0_ROB] entry:  10 instr_id: 82663894 fetch_issued: true fetch_completed: true scheduled: true executed: true completed: true num_reg_dependent: 0 num_mem_ops: 0 event: 66297814
[cpu0_ROB] entry:  11 instr_id: 82663895 fetch_issued: true fetch_completed: true scheduled: true executed: true completed: false num_reg_dependent: 0 num_mem_ops: 1 event: 66297875
[cpu0_ROB] entry:  12 instr_id: 82663896 fetch_issued: true fetch_completed: true scheduled: true executed: true completed: false num_reg_dependent: 0 num_mem_ops: 1 event: 66297875
[cpu0_ROB] entry:  13 instr_id: 82663897 fetch_issued: true fetch_completed: true scheduled: true executed: true completed: false num_reg_dependent: 0 num_mem_ops: 1 event: 66297875
[cpu0_ROB] entry:  14 instr_id: 82663898 fetch_issued: true fetch_completed: true scheduled: true executed: true completed: true num_reg_dependent: 0 num_mem_ops: 0 event: 66297875
[cpu0_ROB] entry:  15 instr_id: 82663899 fetch_issued: true fetch_completed: true scheduled: true executed: true completed: false num_reg_dependent: 0 num_mem_ops: 1 event: 66297889
[cpu0_ROB] entry:  16 instr_id: 82663900 fetch_issued: true fetch_completed: true scheduled: true executed: true completed: true num_reg_dependent: 0 num_mem_ops: 0 event: 66297876
[cpu0_ROB] entry:  17 instr_id: 82663901 fetch_issued: true fetch_completed: true scheduled: true executed: true completed: true num_reg_dependent: 0 num_mem_ops: 0 event: 66297889
[cpu0_ROB] entry:  18 instr_id: 82663902 fetch_issued: true fetch_completed: true scheduled: true executed: true completed: true num_reg_dependent: 0 num_mem_ops: 0 event: 66297874
[cpu0_ROB] entry:  19 instr_id: 82663903 fetch_issued: true fetch_completed: true scheduled: true executed: true completed: true num_reg_dependent: 0 num_mem_ops: 0 event: 66297816
[cpu0_ROB] entry:  20 instr_id: 82663904 fetch_issued: true fetch_completed: true scheduled: true executed: true completed: true num_reg_dependent: 0 num_mem_ops: 0 event: 66297817
[cpu0_ROB] entry:  21 instr_id: 82663905 fetch_issued: true fetch_completed: true scheduled: true executed: true completed: true num_reg_dependent: 0 num_mem_ops: 0 event: 66297817
[cpu0_ROB] entry:  22 instr_id: 82663906 fetch_issued: true fetch_completed: true scheduled: true executed: true completed: true num_reg_dependent: 0 num_mem_ops: 0 event: 66297818
[cpu0_ROB] entry:  23 instr_id: 82663907 fetch_issued: true fetch_completed: true scheduled: true executed: true completed: true num_reg_dependent: 0 num_mem_ops: 0 event: 66297817
[cpu0_ROB] entry:  24 instr_id: 82663908 fetch_issued: true fetch_completed: true scheduled: true executed: true completed: true num_reg_dependent: 0 num_mem_ops: 0 event: 66297818
[cpu0_ROB] entry:  25 instr_id: 82663909 fetch_issued: true fetch_completed: true scheduled: true executed: true completed: true num_reg_dependent: 0 num_mem_ops: 0 event: 66297818
[cpu0_ROB] entry:  26 instr_id: 82663910 fetch_issued: true fetch_completed: true scheduled: true executed: true completed: true num_reg_dependent: 0 num_mem_ops: 0 event: 66297819
[cpu0_ROB] entry:  27 instr_id: 82663911 fetch_issued: true fetch_completed: true scheduled: true executed: true completed: true num_reg_dependent: 0 num_mem_ops: 0 event: 66297818
[cpu0_ROB] entry:  28 instr_id: 82663912 fetch_issued: true fetch_completed: true scheduled: true executed: true completed: true num_reg_dependent: 0 num_mem_ops: 0 event: 66297819
[cpu0_ROB] entry:  29 instr_id: 82663913 fetch_issued: true fetch_completed: true scheduled: true executed: true completed: true num_reg_dependent: 0 num_mem_ops: 0 event: 66297819
[cpu0_ROB] entry:  30 instr_id: 82663914 fetch_issued: true fetch_completed: true scheduled: true executed: true completed: true num_reg_dependent: 0 num_mem_ops: 0 event: 66297820
[cpu0_ROB] entry:  31 instr_id: 82663915 fetch_issued: true fetch_completed: true scheduled: true executed: true completed: true num_reg_dependent: 0 num_mem_ops: 0 event: 66297820
[cpu0_ROB] entry:  32 instr_id: 82663916 fetch_issued: true fetch_completed: true scheduled: true executed: true completed: true num_reg_dependent: 0 num_mem_ops: 0 event: 66297820
[cpu0_ROB] entry:  33 instr_id: 82663917 fetch_issued: true fetch_completed: true scheduled: true executed: true completed: true num_reg_dependent: 0 num_mem_ops: 0 event: 66297820
[cpu0_ROB] entry:  34 instr_id: 82663918 fetch_issued: true fetch_completed: true scheduled: true executed: true completed: true num_reg_dependent: 0 num_mem_ops: 0 event: 66297820
[cpu0_ROB] entry:  35 instr_id: 82663919 fetch_issued: true fetch_completed: true scheduled: true executed: true completed: true num_reg_dependent: 0 num_mem_ops: 0 event: 66297821
[cpu0_ROB] entry:  36 instr_id: 82663920 fetch_issued: true fetch_completed: true scheduled: true executed: true completed: true num_reg_dependent: 0 num_mem_ops: 0 event: 66297821
[cpu0_ROB] entry:  37 instr_id: 82663921 fetch_issued: true fetch_completed: true scheduled: true executed: true completed: true num_reg_dependent: 0 num_mem_ops: 0 event: 66297821
[cpu0_ROB] entry:  38 instr_id: 82663922 fetch_issued: true fetch_completed: true scheduled: true executed: true completed: true num_reg_dependent: 0 num_mem_ops: 0 event: 66297821
[cpu0_ROB] entry:  39 instr_id: 82663923 fetch_issued: true fetch_completed: true scheduled: true executed: true completed: true num_reg_dependent: 0 num_mem_ops: 0 event: 66297821
[cpu0_ROB] entry:  40 instr_id: 82663924 fetch_issued: true fetch_completed: true scheduled: true executed: true completed: true num_reg_dependent: 0 num_mem_ops: 0 event: 66297822
[cpu0_ROB] entry:  41 instr_id: 82663925 fetch_issued: true fetch_completed: true scheduled: true executed: true completed: true num_reg_dependent: 0 num_mem_ops: 0 event: 66297822
[cpu0_ROB] entry:  42 instr_id: 82663926 fetch_issued: true fetch_completed: true scheduled: true executed: true completed: true num_reg_dependent: 0 num_mem_ops: 0 event: 66297822
[cpu0_ROB] entry:  43 instr_id: 82663927 fetch_issued: true fetch_completed: true scheduled: true executed: true completed: true num_reg_dependent: 0 num_mem_ops: 0 event: 66297822
[cpu0_ROB] entry:  44 instr_id: 82663928 fetch_issued: true fetch_completed: true scheduled: true executed: true completed: true num_reg_dependent: 0 num_mem_ops: 0 event: 66297821
[cpu0_ROB] entry:  45 instr_id: 82663929 fetch_issued: true fetch_completed: true scheduled: true executed: true completed: true num_reg_dependent: 0 num_mem_ops: 0 event: 66297822
[cpu0_ROB] entry:  46 instr_id: 82663930 fetch_issued: true fetch_completed: true scheduled: true executed: true completed: true num_reg_dependent: 0 num_mem_ops: 0 event: 66297822
[cpu0_ROB] entry:  47 instr_id: 82663931 fetch_issued: true fetch_completed: true scheduled: true executed: true completed: true num_reg_dependent: 0 num_mem_ops: 0 event: 66297824
[cpu0_ROB] entry:  48 instr_id: 82663932 fetch_issued: true fetch_completed: true scheduled: true executed: true completed: true num_reg_dependent: 0 num_mem_ops: 0 event: 66297822
[cpu0_ROB] entry:  49 instr_id: 82663933 fetch_issued: true fetch_completed: true scheduled: true executed: true completed: true num_reg_dependent: 0 num_mem_ops: 0 event: 66297823
[cpu0_ROB] entry:  50 instr_id: 82663934 fetch_issued: true fetch_completed: true scheduled: true executed: true completed: true num_reg_dependent: 0 num_mem_ops: 0 event: 66297847
[cpu0_ROB] entry:  51 instr_id: 82663935 fetch_issued: true fetch_completed: true scheduled: true executed: true completed: true num_reg_dependent: 0 num_mem_ops: 0 event: 66297848
[cpu0_ROB] entry:  52 instr_id: 82663936 fetch_issued: true fetch_completed: true scheduled: true executed: true completed: true num_reg_dependent: 0 num_mem_ops: 0 event: 66297849
[cpu0_ROB] entry:  53 instr_id: 82663937 fetch_issued: true fetch_completed: true scheduled: true executed: true completed: true num_reg_dependent: 0 num_mem_ops: 0 event: 66297850
[cpu0_ROB] entry:  54 instr_id: 82663938 fetch_issued: true fetch_completed: true scheduled: true executed: true completed: true num_reg_dependent: 0 num_mem_ops: 0 event: 66297851
[cpu0_ROB] entry:  55 instr_id: 82663939 fetch_issued: true fetch_completed: true scheduled: true executed: true completed: true num_reg_dependent: 0 num_mem_ops: 0 event: 66297864
[cpu0_ROB] entry:  56 instr_id: 82663940 fetch_issued: true fetch_completed: true scheduled: true executed: true completed: true num_reg_dependent: 0 num_mem_ops: 0 event: 66297865
[cpu0_ROB] entry:  57 instr_id: 82663941 fetch_issued: true fetch_completed: true scheduled: true executed: true completed: true num_reg_dependent: 0 num_mem_ops: 0 event: 66297866
[cpu0_ROB] entry:  58 instr_id: 82663942 fetch_issued: true fetch_completed: true scheduled: true executed: true completed: true num_reg_dependent: 0 num_mem_ops: 0 event: 66297866
[cpu0_ROB] entry:  59 instr_id: 82663943 fetch_issued: true fetch_completed: true scheduled: true executed: true completed: true num_reg_dependent: 0 num_mem_ops: 0 event: 66297872
[cpu0_ROB] entry:  60 instr_id: 82663944 fetch_issued: true fetch_completed: true scheduled: true executed: true completed: true num_reg_dependent: 0 num_mem_ops: 0 event: 66297825
[cpu0_ROB] entry:  61 instr_id: 82663945 fetch_issued: true fetch_completed: true scheduled: true executed: true completed: true num_reg_dependent: 0 num_mem_ops: 0 event: 66297826
[cpu0_ROB] entry:  62 instr_id: 82663946 fetch_issued: true fetch_completed: true scheduled: true executed: true completed: true num_reg_dependent: 0 num_mem_ops: 0 event: 66297827
[cpu0_ROB] entry:  63 instr_id: 82663947 fetch_issued: true fetch_completed: true scheduled: true executed: true completed: true num_reg_dependent: 0 num_mem_ops: 0 event: 66297873
[cpu0_ROB] entry:  64 instr_id: 82663948 fetch_issued: true fetch_completed: true scheduled: true executed: true completed: true num_reg_dependent: 0 num_mem_ops: 0 event: 66297881
[cpu0_ROB] entry:  65 instr_id: 82663949 fetch_issued: true fetch_completed: true scheduled: true executed: true completed: true num_reg_dependent: 0 num_mem_ops: 0 event: 66297827
[cpu0_ROB] entry:  66 instr_id: 82663950 fetch_issued: true fetch_completed: true scheduled: true executed: true completed: true num_reg_dependent: 0 num_mem_ops: 0 event: 66297827
[cpu0_ROB] entry:  67 instr_id: 82663951 fetch_issued: true fetch_completed: true scheduled: true executed: true completed: false num_reg_dependent: 0 num_mem_ops: 1 event: 66297827
[cpu0_ROB] entry:  68 instr_id: 82663952 fetch_issued: true fetch_completed: true scheduled: true executed: true completed: false num_reg_dependent: 0 num_mem_ops: 1 event: 66297867
[cpu0_ROB] entry:  69 instr_id: 82663953 fetch_issued: true fetch_completed: true scheduled: true executed: true completed: true num_reg_dependent: 0 num_mem_ops: 0 event: 66297867
[cpu0_ROB] entry:  70 instr_id: 82663954 fetch_issued: true fetch_completed: true scheduled: true executed: true completed: true num_reg_dependent: 0 num_mem_ops: 0 event: 66297859
[cpu0_ROB] entry:  71 instr_id: 82663955 fetch_issued: true fetch_completed: true scheduled: true executed: true completed: true num_reg_dependent: 0 num_mem_ops: 0 event: 66297865
[cpu0_ROB] entry:  72 instr_id: 82663956 fetch_issued: true fetch_completed: true scheduled: true executed: true completed: true num_reg_dependent: 0 num_mem_ops: 0 event: 66297865
[cpu0_ROB] entry:  73 instr_id: 82663957 fetch_issued: true fetch_completed: true scheduled: true executed: true completed: true num_reg_dependent: 0 num_mem_ops: 0 event: 66297828
[cpu0_ROB] entry:  74 instr_id: 82663958 fetch_issued: true fetch_completed: true scheduled: true executed: true completed: true num_reg_dependent: 0 num_mem_ops: 0 event: 66297828
[cpu0_ROB] entry:  75 instr_id: 82663959 fetch_issued: true fetch_completed: true scheduled: true executed: true completed: true num_reg_dependent: 0 num_mem_ops: 0 event: 66297859
[cpu0_ROB] entry:  76 instr_id: 82663960 fetch_issued: true fetch_completed: true scheduled: true executed: true completed: true num_reg_dependent: 0 num_mem_ops: 0 event: 66297860
[cpu0_ROB] entry:  77 instr_id: 82663961 fetch_issued: true fetch_completed: true scheduled: true executed: true completed: true num_reg_dependent: 0 num_mem_ops: 0 event: 66297860
[cpu0_ROB] entry:  78 instr_id: 82663962 fetch_issued: true fetch_completed: true scheduled: true executed: true completed: false num_reg_dependent: 0 num_mem_ops: 1 event: 66297871
[cpu0_ROB] entry:  79 instr_id: 82663963 fetch_issued: true fetch_completed: true scheduled: true executed: true completed: true num_reg_dependent: 0 num_mem_ops: 0 event: 66297871
[cpu0_ROB] entry:  80 instr_id: 82663964 fetch_issued: true fetch_completed: true scheduled: true executed: true completed: true num_reg_dependent: 0 num_mem_ops: 0 event: 66297872
[cpu0_ROB] entry:  81 instr_id: 82663965 fetch_issued: true fetch_completed: true scheduled: true executed: true completed: true num_reg_dependent: 0 num_mem_ops: 0 event: 66297873
[cpu0_ROB] entry:  82 instr_id: 82663966 fetch_issued: true fetch_completed: true scheduled: true executed: true completed: true num_reg_dependent: 0 num_mem_ops: 0 event: 66297874
[cpu0_ROB] entry:  83 instr_id: 82663967 fetch_issued: true fetch_completed: true scheduled: true executed: true completed: true num_reg_dependent: 0 num_mem_ops: 0 event: 66297887
[cpu0_ROB] entry:  84 instr_id: 82663968 fetch_issued: true fetch_completed: true scheduled: true executed: true completed: true num_reg_dependent: 0 num_mem_ops: 0 event: 66297887
[cpu0_ROB] entry:  85 instr_id: 82663969 fetch_issued: true fetch_completed: true scheduled: true executed: true completed: true num_reg_dependent: 0 num_mem_ops: 0 event: 66297872
[cpu0_ROB] entry:  86 instr_id: 82663970 fetch_issued: true fetch_completed: true scheduled: true executed: false completed: false num_reg_dependent: 1 num_mem_ops: 0 event: 66297870
[cpu0_ROB] entry:  87 instr_id: 82663971 fetch_issued: true fetch_completed: true scheduled: true executed: true completed: true num_reg_dependent: 0 num_mem_ops: 0 event: 66297873
[cpu0_ROB] entry:  88 instr_id: 82663972 fetch_issued: true fetch_completed: true scheduled: true executed: true completed: true num_reg_dependent: 0 num_mem_ops: 0 event: 66297873
[cpu0_ROB] entry:  89 instr_id: 82663973 fetch_issued: true fetch_completed: true scheduled: true executed: true completed: true num_reg_dependent: 0 num_mem_ops: 0 event: 66297873
[cpu0_ROB] entry:  90 instr_id: 82663974 fetch_issued: true fetch_completed: true scheduled: true executed: true completed: true num_reg_dependent: 0 num_mem_ops: 0 event: 66297874
[cpu0_ROB] entry:  91 instr_id: 82663975 fetch_issued: true fetch_completed: true scheduled: true executed: true completed: true num_reg_dependent: 0 num_mem_ops: 0 event: 66297874
[cpu0_ROB] entry:  92 instr_id: 82663976 fetch_issued: true fetch_completed: true scheduled: true executed: true completed: true num_reg_dependent: 0 num_mem_ops: 0 event: 66297876
[cpu0_ROB] entry:  93 instr_id: 82663977 fetch_issued: true fetch_completed: true scheduled: true executed: true completed: true num_reg_dependent: 0 num_mem_ops: 0 event: 66297874
[cpu0_ROB] entry:  94 instr_id: 82663978 fetch_issued: true fetch_completed: true scheduled: true executed: true completed: true num_reg_dependent: 0 num_mem_ops: 0 event: 66297876
[cpu0_ROB] entry:  95 instr_id: 82663979 fetch_issued: true fetch_completed: true scheduled: true executed: true completed: true num_reg_dependent: 0 num_mem_ops: 0 event: 66297874
[cpu0_ROB] entry:  96 instr_id: 82663980 fetch_issued: true fetch_completed: true scheduled: true executed: true completed: true num_reg_dependent: 0 num_mem_ops: 0 event: 66297876
[cpu0_ROB] entry:  97 instr_id: 82663981 fetch_issued: true fetch_completed: true scheduled: true executed: true completed: true num_reg_dependent: 0 num_mem_ops: 0 event: 66297876
[cpu0_ROB] entry:  98 instr_id: 82663982 fetch_issued: true fetch_completed: true scheduled: true executed: true completed: true num_reg_dependent: 0 num_mem_ops: 0 event: 66297877
[cpu0_ROB] entry:  99 instr_id: 82663983 fetch_issued: true fetch_completed: true scheduled: true executed: true completed: true num_reg_dependent: 0 num_mem_ops: 0 event: 66297877
[cpu0_ROB] entry: 100 instr_id: 82663984 fetch_issued: true fetch_completed: true scheduled: true executed: true completed: true num_reg_dependent: 0 num_mem_ops: 0 event: 66297877
[cpu0_ROB] entry: 101 instr_id: 82663985 fetch_issued: true fetch_completed: true scheduled: true executed: true completed: true num_reg_dependent: 0 num_mem_ops: 0 event: 66297877
[cpu0_ROB] entry: 102 instr_id: 82663986 fetch_issued: true fetch_completed: true scheduled: true executed: true completed: true num_reg_dependent: 0 num_mem_ops: 0 event: 66297877
[cpu0_ROB] entry: 103 instr_id: 82663987 fetch_issued: true fetch_completed: true scheduled: true executed: true completed: true num_reg_dependent: 0 num_mem_ops: 0 event: 66297878
[cpu0_ROB] entry: 104 instr_id: 82663988 fetch_issued: true fetch_completed: true scheduled: true executed: true completed: true num_reg_dependent: 0 num_mem_ops: 0 event: 66297878
[cpu0_ROB] entry: 105 instr_id: 82663989 fetch_issued: true fetch_completed: true scheduled: true executed: true completed: true num_reg_dependent: 0 num_mem_ops: 0 event: 66297878
[cpu0_ROB] entry: 106 instr_id: 82663990 fetch_issued: true fetch_completed: true scheduled: true executed: true completed: true num_reg_dependent: 0 num_mem_ops: 0 event: 66297878
[cpu0_ROB] entry: 107 instr_id: 82663991 fetch_issued: true fetch_completed: true scheduled: true executed: true completed: true num_reg_dependent: 0 num_mem_ops: 0 event: 66297878
[cpu0_ROB] entry: 108 instr_id: 82663992 fetch_issued: true fetch_completed: true scheduled: true executed: true completed: true num_reg_dependent: 0 num_mem_ops: 0 event: 66297879
[cpu0_ROB] entry: 109 instr_id: 82663993 fetch_issued: true fetch_completed: true scheduled: true executed: true completed: true num_reg_dependent: 0 num_mem_ops: 0 event: 66297879
[cpu0_ROB] entry: 110 instr_id: 82663994 fetch_issued: true fetch_completed: true scheduled: true executed: true completed: true num_reg_dependent: 0 num_mem_ops: 0 event: 66297879
[cpu0_ROB] entry: 111 instr_id: 82663995 fetch_issued: true fetch_completed: true scheduled: true executed: true completed: true num_reg_dependent: 0 num_mem_ops: 0 event: 66297879
[cpu0_ROB] entry: 112 instr_id: 82663996 fetch_issued: true fetch_completed: true scheduled: true executed: true completed: true num_reg_dependent: 0 num_mem_ops: 0 event: 66297878
[cpu0_ROB] entry: 113 instr_id: 82663997 fetch_issued: true fetch_completed: true scheduled: true executed: true completed: true num_reg_dependent: 0 num_mem_ops: 0 event: 66297878
[cpu0_ROB] entry: 114 instr_id: 82663998 fetch_issued: true fetch_completed: true scheduled: true executed: true completed: true num_reg_dependent: 0 num_mem_ops: 0 event: 66297896
[cpu0_ROB] entry: 115 instr_id: 82663999 fetch_issued: true fetch_completed: true scheduled: true executed: true completed: true num_reg_dependent: 0 num_mem_ops: 0 event: 66297883
[cpu0_ROB] entry: 116 instr_id: 82664000 fetch_issued: true fetch_completed: true scheduled: true executed: true completed: true num_reg_dependent: 0 num_mem_ops: 0 event: 66297883
[cpu0_ROB] entry: 117 instr_id: 82664001 fetch_issued: true fetch_completed: true scheduled: true executed: true completed: true num_reg_dependent: 0 num_mem_ops: 0 event: 66297883
[cpu0_ROB] entry: 118 instr_id: 82664002 fetch_issued: true fetch_completed: true scheduled: true executed: true completed: true num_reg_dependent: 0 num_mem_ops: 0 event: 66297897
[cpu0_ROB] entry: 119 instr_id: 82664003 fetch_issued: true fetch_completed: true scheduled: true executed: true completed: true num_reg_dependent: 0 num_mem_ops: 0 event: 66297898
[cpu0_ROB] entry: 120 instr_id: 82664004 fetch_issued: true fetch_completed: true scheduled: true executed: true completed: true num_reg_dependent: 0 num_mem_ops: 0 event: 66297899
[cpu0_ROB] entry: 121 instr_id: 82664005 fetch_issued: true fetch_completed: true scheduled: true executed: true completed: true num_reg_dependent: 0 num_mem_ops: 0 event: 66297900
[cpu0_ROB] entry: 122 instr_id: 82664006 fetch_issued: true fetch_completed: true scheduled: true executed: true completed: true num_reg_dependent: 0 num_mem_ops: 0 event: 66297901
[cpu0_ROB] entry: 123 instr_id: 82664007 fetch_issued: true fetch_completed: true scheduled: true executed: true completed: true num_reg_dependent: 0 num_mem_ops: 0 event: 66297907
[cpu0_ROB] entry: 124 instr_id: 82664008 fetch_issued: true fetch_completed: true scheduled: true executed: true completed: true num_reg_dependent: 0 num_mem_ops: 0 event: 66297908
[cpu0_ROB] entry: 125 instr_id: 82664009 fetch_issued: true fetch_completed: true scheduled: true executed: true completed: true num_reg_dependent: 0 num_mem_ops: 0 event: 66297909
[cpu0_ROB] entry: 126 instr_id: 82664010 fetch_issued: true fetch_completed: true scheduled: true executed: true completed: true num_reg_dependent: 0 num_mem_ops: 0 event: 66297909
[cpu0_ROB] entry: 127 instr_id: 82664011 fetch_issued: true fetch_completed: true scheduled: true executed: true completed: true num_reg_dependent: 0 num_mem_ops: 0 event: 66297915
[cpu0_ROB] entry: 128 instr_id: 82664012 fetch_issued: true fetch_completed: true scheduled: true executed: true completed: true num_reg_dependent: 0 num_mem_ops: 0 event: 66297881
[cpu0_ROB] entry: 129 instr_id: 82664013 fetch_issued: true fetch_completed: true scheduled: true executed: true completed: true num_reg_dependent: 0 num_mem_ops: 0 event: 66297882
[cpu0_ROB] entry: 130 instr_id: 82664014 fetch_issued: true fetch_completed: true scheduled: true executed: true completed: true num_reg_dependent: 0 num_mem_ops: 0 event: 66297884
[cpu0_ROB] entry: 131 instr_id: 82664015 fetch_issued: true fetch_completed: true scheduled: true executed: true completed: true num_reg_dependent: 0 num_mem_ops: 0 event: 66297916
[cpu0_ROB] entry: 132 instr_id: 82664016 fetch_issued: true fetch_completed: true scheduled: true executed: true completed: true num_reg_dependent: 0 num_mem_ops: 0 event: 66297923
[cpu0_ROB] entry: 133 instr_id: 82664017 fetch_issued: true fetch_completed: true scheduled: true executed: true completed: true num_reg_dependent: 0 num_mem_ops: 0 event: 66297883
[cpu0_ROB] entry: 134 instr_id: 82664018 fetch_issued: true fetch_completed: true scheduled: true executed: true completed: true num_reg_dependent: 0 num_mem_ops: 0 event: 66297909
[cpu0_ROB] entry: 135 instr_id: 82664019 fetch_issued: true fetch_completed: true scheduled: true executed: true completed: true num_reg_dependent: 0 num_mem_ops: 0 event: 66297915
[cpu0_ROB] entry: 136 instr_id: 82664020 fetch_issued: true fetch_completed: true scheduled: true executed: true completed: true num_reg_dependent: 0 num_mem_ops: 0 event: 66297883
[cpu0_ROB] entry: 137 instr_id: 82664021 fetch_issued: true fetch_completed: true scheduled: true executed: true completed: true num_reg_dependent: 0 num_mem_ops: 0 event: 66297884
[cpu0_ROB] entry: 138 instr_id: 82664022 fetch_issued: true fetch_completed: true scheduled: true executed: true completed: true num_reg_dependent: 0 num_mem_ops: 0 event: 66297885
[cpu0_ROB] entry: 139 instr_id: 82664023 fetch_issued: true fetch_completed: true scheduled: true executed: true completed: true num_reg_dependent: 0 num_mem_ops: 0 event: 66297916
[cpu0_ROB] entry: 140 instr_id: 82664024 fetch_issued: true fetch_completed: true scheduled: true executed: false completed: false num_reg_dependent: 1 num_mem_ops: 0 event: 66297881
[cpu0_ROB] entry: 141 instr_id: 82664025 fetch_issued: true fetch_completed: true scheduled: true executed: false completed: false num_reg_dependent: 1 num_mem_ops: 0 event: 66297881
[cpu0_ROB] entry: 142 instr_id: 82664026 fetch_issued: true fetch_completed: true scheduled: true executed: true completed: true num_reg_dependent: 0 num_mem_ops: 0 event: 66297884
[cpu0_ROB] entry: 143 instr_id: 82664027 fetch_issued: true fetch_completed: true scheduled: true executed: true completed: true num_reg_dependent: 0 num_mem_ops: 0 event: 66297916
[cpu0_ROB] entry: 144 instr_id: 82664028 fetch_issued: true fetch_completed: true scheduled: true executed: true completed: true num_reg_dependent: 0 num_mem_ops: 0 event: 66297885
[cpu0_ROB] entry: 145 instr_id: 82664029 fetch_issued: true fetch_completed: true scheduled: true executed: true completed: true num_reg_dependent: 0 num_mem_ops: 0 event: 66297916
[cpu0_ROB] entry: 146 instr_id: 82664030 fetch_issued: true fetch_completed: true scheduled: true executed: true completed: true num_reg_dependent: 0 num_mem_ops: 0 event: 66297922
[cpu0_ROB] entry: 147 instr_id: 82664031 fetch_issued: true fetch_completed: true scheduled: true executed: true completed: true num_reg_dependent: 0 num_mem_ops: 0 event: 66297923
[cpu0_ROB] entry: 148 instr_id: 82664032 fetch_issued: true fetch_completed: true scheduled: true executed: true completed: false num_reg_dependent: 0 num_mem_ops: 1 event: 66297924
[cpu0_ROB] entry: 149 instr_id: 82664033 fetch_issued: true fetch_completed: true scheduled: true executed: true completed: true num_reg_dependent: 0 num_mem_ops: 0 event: 66297896
[cpu0_ROB] entry: 150 instr_id: 82664034 fetch_issued: true fetch_completed: true scheduled: true executed: true completed: true num_reg_dependent: 0 num_mem_ops: 0 event: 66297925
[cpu0_ROB] entry: 151 instr_id: 82664035 fetch_issued: true fetch_completed: true scheduled: true executed: true completed: true num_reg_dependent: 0 num_mem_ops: 0 event: 66297886
[cpu0_ROB] entry: 152 instr_id: 82664036 fetch_issued: true fetch_completed: true scheduled: true executed: true completed: true num_reg_dependent: 0 num_mem_ops: 0 event: 66297916
[cpu0_ROB] entry: 153 instr_id: 82664037 fetch_issued: true fetch_completed: true scheduled: true executed: true completed: true num_reg_dependent: 0 num_mem_ops: 0 event: 66297924
[cpu0_ROB] entry: 154 instr_id: 82664038 fetch_issued: true fetch_completed: true scheduled: true executed: true completed: true num_reg_dependent: 0 num_mem_ops: 0 event: 66297887
[cpu0_ROB] entry: 155 instr_id: 82664039 fetch_issued: true fetch_completed: true scheduled: true executed: true completed: true num_reg_dependent: 0 num_mem_ops: 0 event: 66297888
[cpu0_ROB] entry: 156 instr_id: 82664040 fetch_issued: true fetch_completed: true scheduled: true executed: true completed: true num_reg_dependent: 0 num_mem_ops: 0 event: 66297889
[cpu0_ROB] entry: 157 instr_id: 82664041 fetch_issued: true fetch_completed: true scheduled: true executed: true completed: true num_reg_dependent: 0 num_mem_ops: 0 event: 66297925
[cpu0_ROB] entry: 158 instr_id: 82664042 fetch_issued: true fetch_completed: true scheduled: true executed: true completed: true num_reg_dependent: 0 num_mem_ops: 0 event: 66297925
[cpu0_ROB] entry: 159 instr_id: 82664043 fetch_issued: true fetch_completed: true scheduled: true executed: true completed: true num_reg_dependent: 0 num_mem_ops: 0 event: 66297932
[cpu0_ROB] entry: 160 instr_id: 82664044 fetch_issued: true fetch_completed: true scheduled: true executed: true completed: true num_reg_dependent: 0 num_mem_ops: 0 event: 66297888
[cpu0_ROB] entry: 161 instr_id: 82664045 fetch_issued: true fetch_completed: true scheduled: true executed: true completed: false num_reg_dependent: 0 num_mem_ops: 1 event: 66297931
[cpu0_ROB] entry: 162 instr_id: 82664046 fetch_issued: true fetch_completed: true scheduled: true executed: true completed: true num_reg_dependent: 0 num_mem_ops: 0 event: 66297910
[cpu0_ROB] entry: 163 instr_id: 82664047 fetch_issued: true fetch_completed: true scheduled: true executed: true completed: true num_reg_dependent: 0 num_mem_ops: 0 event: 66297889
[cpu0_ROB] entry: 164 instr_id: 82664048 fetch_issued: true fetch_completed: true scheduled: true executed: true completed: true num_reg_dependent: 0 num_mem_ops: 0 event: 66297889
[cpu0_ROB] entry: 165 instr_id: 82664049 fetch_issued: true fetch_completed: true scheduled: true executed: true completed: true num_reg_dependent: 0 num_mem_ops: 0 event: 66297925
[cpu0_ROB] entry: 166 instr_id: 82664050 fetch_issued: true fetch_completed: true scheduled: true executed: true completed: true num_reg_dependent: 0 num_mem_ops: 0 event: 66297925
[cpu0_ROB] entry: 167 instr_id: 82664051 fetch_issued: true fetch_completed: true scheduled: true executed: true completed: true num_reg_dependent: 0 num_mem_ops: 0 event: 66297933
[cpu0_ROB] entry: 168 instr_id: 82664052 fetch_issued: true fetch_completed: true scheduled: true executed: true completed: true num_reg_dependent: 0 num_mem_ops: 0 event: 66297934
[cpu0_ROB] entry: 169 instr_id: 82664053 fetch_issued: true fetch_completed: true scheduled: true executed: true completed: true num_reg_dependent: 0 num_mem_ops: 0 event: 66297935
[cpu0_ROB] entry: 170 instr_id: 82664054 fetch_issued: true fetch_completed: true scheduled: true executed: true completed: true num_reg_dependent: 0 num_mem_ops: 0 event: 66297936
[cpu0_ROB] entry: 171 instr_id: 82664055 fetch_issued: true fetch_completed: true scheduled: true executed: true completed: true num_reg_dependent: 0 num_mem_ops: 0 event: 66297937
[cpu0_ROB] entry: 172 instr_id: 82664056 fetch_issued: true fetch_completed: true scheduled: true executed: true completed: true num_reg_dependent: 0 num_mem_ops: 0 event: 66297943
[cpu0_ROB] entry: 173 instr_id: 82664057 fetch_issued: true fetch_completed: true scheduled: true executed: true completed: true num_reg_dependent: 0 num_mem_ops: 0 event: 66297944
[cpu0_ROB] entry: 174 instr_id: 82664058 fetch_issued: true fetch_completed: true scheduled: true executed: true completed: true num_reg_dependent: 0 num_mem_ops: 0 event: 66297945
[cpu0_ROB] entry: 175 instr_id: 82664059 fetch_issued: true fetch_completed: true scheduled: true executed: true completed: true num_reg_dependent: 0 num_mem_ops: 0 event: 66297945
[cpu0_ROB] entry: 176 instr_id: 82664060 fetch_issued: true fetch_completed: true scheduled: true executed: true completed: true num_reg_dependent: 0 num_mem_ops: 0 event: 66297936
[cpu0_ROB] entry: 177 instr_id: 82664061 fetch_issued: true fetch_completed: true scheduled: true executed: true completed: true num_reg_dependent: 0 num_mem_ops: 0 event: 66297937
[cpu0_ROB] entry: 178 instr_id: 82664062 fetch_issued: true fetch_completed: true scheduled: true executed: true completed: true num_reg_dependent: 0 num_mem_ops: 0 event: 66297937
[cpu0_ROB] entry: 179 instr_id: 82664063 fetch_issued: true fetch_completed: true scheduled: true executed: true completed: true num_reg_dependent: 0 num_mem_ops: 0 event: 66297936
[cpu0_ROB] entry: 180 instr_id: 82664064 fetch_issued: true fetch_completed: true scheduled: true executed: true completed: true num_reg_dependent: 0 num_mem_ops: 0 event: 66297897
[cpu0_ROB] entry: 181 instr_id: 82664065 fetch_issued: true fetch_completed: true scheduled: true executed: true completed: true num_reg_dependent: 0 num_mem_ops: 0 event: 66297892
[cpu0_ROB] entry: 182 instr_id: 82664066 fetch_issued: true fetch_completed: true scheduled: true executed: true completed: true num_reg_dependent: 0 num_mem_ops: 0 event: 66297936
[cpu0_ROB] entry: 183 instr_id: 82664067 fetch_issued: true fetch_completed: true scheduled: true executed: true completed: true num_reg_dependent: 0 num_mem_ops: 0 event: 66297942
[cpu0_ROB] entry: 184 instr_id: 82664068 fetch_issued: true fetch_completed: true scheduled: true executed: true completed: true num_reg_dependent: 0 num_mem_ops: 0 event: 66297943
[cpu0_ROB] entry: 185 instr_id: 82664069 fetch_issued: true fetch_completed: true scheduled: true executed: true completed: false num_reg_dependent: 0 num_mem_ops: 1 event: 66297944
[cpu0_ROB] entry: 186 instr_id: 82664070 fetch_issued: true fetch_completed: true scheduled: true executed: true completed: true num_reg_dependent: 0 num_mem_ops: 0 event: 66297897
[cpu0_ROB] entry: 187 instr_id: 82664071 fetch_issued: true fetch_completed: true scheduled: true executed: true completed: true num_reg_dependent: 0 num_mem_ops: 0 event: 66297893
[cpu0_ROB] entry: 188 instr_id: 82664072 fetch_issued: true fetch_completed: true scheduled: true executed: true completed: true num_reg_dependent: 0 num_mem_ops: 0 event: 66297894
[cpu0_ROB] entry: 189 instr_id: 82664073 fetch_issued: true fetch_completed: true scheduled: true executed: true completed: true num_reg_dependent: 0 num_mem_ops: 0 event: 66297895
[cpu0_ROB] entry: 190 instr_id: 82664074 fetch_issued: true fetch_completed: true scheduled: true executed: true completed: true num_reg_dependent: 0 num_mem_ops: 0 event: 66297943
[cpu0_ROB] entry: 191 instr_id: 82664075 fetch_issued: true fetch_completed: true scheduled: true executed: true completed: true num_reg_dependent: 0 num_mem_ops: 0 event: 66297944
[cpu0_ROB] entry: 192 instr_id: 82664076 fetch_issued: true fetch_completed: true scheduled: true executed: true completed: true num_reg_dependent: 0 num_mem_ops: 0 event: 66297945
[cpu0_ROB] entry: 193 instr_id: 82664077 fetch_issued: true fetch_completed: true scheduled: true executed: true completed: true num_reg_dependent: 0 num_mem_ops: 0 event: 66297943
[cpu0_ROB] entry: 194 instr_id: 82664078 fetch_issued: true fetch_completed: true scheduled: true executed: true completed: true num_reg_dependent: 0 num_mem_ops: 0 event: 66297951
[cpu0_ROB] entry: 195 instr_id: 82664079 fetch_issued: true fetch_completed: true scheduled: true executed: true completed: true num_reg_dependent: 0 num_mem_ops: 0 event: 66297911
[cpu0_ROB] entry: 196 instr_id: 82664080 fetch_issued: true fetch_completed: true scheduled: true executed: true completed: true num_reg_dependent: 0 num_mem_ops: 0 event: 66297957
[cpu0_ROB] entry: 197 instr_id: 82664081 fetch_issued: true fetch_completed: true scheduled: true executed: true completed: true num_reg_dependent: 0 num_mem_ops: 0 event: 66297895
[cpu0_ROB] entry: 198 instr_id: 82664082 fetch_issued: true fetch_completed: true scheduled: true executed: true completed: true num_reg_dependent: 0 num_mem_ops: 0 event: 66297912
[cpu0_ROB] entry: 199 instr_id: 82664083 fetch_issued: true fetch_completed: true scheduled: true executed: true completed: true num_reg_dependent: 0 num_mem_ops: 0 event: 66297943
[cpu0_ROB] entry: 200 instr_id: 82664084 fetch_issued: true fetch_completed: true scheduled: true executed: true completed: false num_reg_dependent: 0 num_mem_ops: 1 event: 66297943
[cpu0_ROB] entry: 201 instr_id: 82664085 fetch_issued: true fetch_completed: true scheduled: true executed: true completed: true num_reg_dependent: 0 num_mem_ops: 0 event: 66297957
[cpu0_ROB] entry: 202 instr_id: 82664086 fetch_issued: true fetch_completed: true scheduled: true executed: true completed: true num_reg_dependent: 0 num_mem_ops: 0 event: 66297897
[cpu0_ROB] entry: 203 instr_id: 82664087 fetch_issued: true fetch_completed: true scheduled: true executed: true completed: true num_reg_dependent: 0 num_mem_ops: 0 event: 66297897
[cpu0_ROB] entry: 204 instr_id: 82664088 fetch_issued: true fetch_completed: true scheduled: true executed: true completed: true num_reg_dependent: 0 num_mem_ops: 0 event: 66297898
[cpu0_ROB] entry: 205 instr_id: 82664089 fetch_issued: true fetch_completed: true scheduled: true executed: true completed: true num_reg_dependent: 0 num_mem_ops: 0 event: 66297899
[cpu0_ROB] entry: 206 instr_id: 82664090 fetch_issued: true fetch_completed: true scheduled: true executed: true completed: false num_reg_dependent: 0 num_mem_ops: 1 event: 66297900
[cpu0_ROB] entry: 207 instr_id: 82664091 fetch_issued: true fetch_completed: true scheduled: true executed: true completed: true num_reg_dependent: 0 num_mem_ops: 0 event: 66297898
[cpu0_ROB] entry: 208 instr_id: 82664092 fetch_issued: true fetch_completed: true scheduled: true executed: true completed: true num_reg_dependent: 0 num_mem_ops: 0 event: 66297898
[cpu0_ROB] entry: 209 instr_id: 82664093 fetch_issued: true fetch_completed: true scheduled: true executed: true completed: true num_reg_dependent: 0 num_mem_ops: 0 event: 66297899
[cpu0_ROB] entry: 210 instr_id: 82664094 fetch_issued: true fetch_completed: true scheduled: true executed: true completed: true num_reg_dependent: 0 num_mem_ops: 0 event: 66297899
[cpu0_ROB] entry: 211 instr_id: 82664095 fetch_issued: true fetch_completed: true scheduled: true executed: true completed: true num_reg_dependent: 0 num_mem_ops: 0 event: 66297899
[cpu0_ROB] entry: 212 instr_id: 82664096 fetch_issued: true fetch_completed: true scheduled: true executed: true completed: true num_reg_dependent: 0 num_mem_ops: 0 event: 66297899
[cpu0_ROB] entry: 213 instr_id: 82664097 fetch_issued: true fetch_completed: true scheduled: true executed: true completed: true num_reg_dependent: 0 num_mem_ops: 0 event: 66297899
[cpu0_ROB] entry: 214 instr_id: 82664098 fetch_issued: true fetch_completed: true scheduled: true executed: true completed: true num_reg_dependent: 0 num_mem_ops: 0 event: 66297900
[cpu0_ROB] entry: 215 instr_id: 82664099 fetch_issued: true fetch_completed: true scheduled: true executed: true completed: true num_reg_dependent: 0 num_mem_ops: 0 event: 66297900
[cpu0_ROB] entry: 216 instr_id: 82664100 fetch_issued: true fetch_completed: true scheduled: true executed: true completed: false num_reg_dependent: 0 num_mem_ops: 1 event: 66297901
[cpu0_ROB] entry: 217 instr_id: 82664101 fetch_issued: true fetch_completed: true scheduled: true executed: true completed: true num_reg_dependent: 0 num_mem_ops: 0 event: 66297900
[cpu0_ROB] entry: 218 instr_id: 82664102 fetch_issued: true fetch_completed: true scheduled: true executed: true completed: true num_reg_dependent: 0 num_mem_ops: 0 event: 66297901
[cpu0_ROB] entry: 219 instr_id: 82664103 fetch_issued: true fetch_completed: true scheduled: true executed: true completed: true num_reg_dependent: 0 num_mem_ops: 0 event: 66297901
[cpu0_ROB] entry: 220 instr_id: 82664104 fetch_issued: true fetch_completed: true scheduled: true executed: true completed: true num_reg_dependent: 0 num_mem_ops: 0 event: 66297901
[cpu0_ROB] entry: 221 instr_id: 82664105 fetch_issued: true fetch_completed: true scheduled: true executed: true completed: true num_reg_dependent: 0 num_mem_ops: 0 event: 66297901
[cpu0_ROB] entry: 222 instr_id: 82664106 fetch_issued: true fetch_completed: true scheduled: true executed: true completed: true num_reg_dependent: 0 num_mem_ops: 0 event: 66297902
[cpu0_ROB] entry: 223 instr_id: 82664107 fetch_issued: true fetch_completed: true scheduled: true executed: true completed: true num_reg_dependent: 0 num_mem_ops: 0 event: 66297903
[cpu0_ROB] entry: 224 instr_id: 82664108 fetch_issued: true fetch_completed: true scheduled: true executed: true completed: true num_reg_dependent: 0 num_mem_ops: 0 event: 66297909
[cpu0_ROB] entry: 225 instr_id: 82664109 fetch_issued: true fetch_completed: true scheduled: true executed: true completed: true num_reg_dependent: 0 num_mem_ops: 0 event: 66297909
[cpu0_ROB] entry: 226 instr_id: 82664110 fetch_issued: true fetch_completed: true scheduled: true executed: true completed: true num_reg_dependent: 0 num_mem_ops: 0 event: 66297903
[cpu0_ROB] entry: 227 instr_id: 82664111 fetch_issued: true fetch_completed: true scheduled: true executed: true completed: true num_reg_dependent: 0 num_mem_ops: 0 event: 66297903
[cpu0_ROB] entry: 228 instr_id: 82664112 fetch_issued: true fetch_completed: true scheduled: true executed: true completed: true num_reg_dependent: 0 num_mem_ops: 0 event: 66297903
[cpu0_ROB] entry: 229 instr_id: 82664113 fetch_issued: true fetch_completed: true scheduled: true executed: true completed: false num_reg_dependent: 0 num_mem_ops: 1 event: 66297911
[cpu0_ROB] entry: 230 instr_id: 82664114 fetch_issued: true fetch_completed: true scheduled: true executed: true completed: true num_reg_dependent: 0 num_mem_ops: 0 event: 66297903
[cpu0_ROB] entry: 231 instr_id: 82664115 fetch_issued: true fetch_completed: true scheduled: true executed: true completed: false num_reg_dependent: 0 num_mem_ops: 1 event: 66297904
[cpu0_ROB] entry: 232 instr_id: 82664116 fetch_issued: true fetch_completed: true scheduled: true executed: true completed: true num_reg_dependent: 0 num_mem_ops: 0 event: 66297904
[cpu0_ROB] entry: 233 instr_id: 82664117 fetch_issued: true fetch_completed: true scheduled: true executed: true completed: false num_reg_dependent: 0 num_mem_ops: 1 event: 66297905
[cpu0_ROB] entry: 234 instr_id: 82664118 fetch_issued: true fetch_completed: true scheduled: true executed: true completed: true num_reg_dependent: 0 num_mem_ops: 0 event: 66297904
[cpu0_ROB] entry: 235 instr_id: 82664119 fetch_issued: true fetch_completed: true scheduled: true executed: true completed: false num_reg_dependent: 0 num_mem_ops: 1 event: 66297905
[cpu0_ROB] entry: 236 instr_id: 82664120 fetch_issued: true fetch_completed: true scheduled: true executed: true completed: true num_reg_dependent: 0 num_mem_ops: 0 event: 66297905
[cpu0_ROB] entry: 237 instr_id: 82664121 fetch_issued: true fetch_completed: true scheduled: true executed: true completed: false num_reg_dependent: 0 num_mem_ops: 1 event: 66297906
[cpu0_ROB] entry: 238 instr_id: 82664122 fetch_issued: true fetch_completed: true scheduled: true executed: true completed: false num_reg_dependent: 0 num_mem_ops: 1 event: 66297906
[cpu0_ROB] entry: 239 instr_id: 82664123 fetch_issued: true fetch_completed: true scheduled: true executed: true completed: false num_reg_dependent: 0 num_mem_ops: 1 event: 66297906
[cpu0_ROB] entry: 240 instr_id: 82664124 fetch_issued: true fetch_completed: true scheduled: true executed: true completed: false num_reg_dependent: 0 num_mem_ops: 1 event: 66297906
[cpu0_ROB] entry: 241 instr_id: 82664125 fetch_issued: true fetch_completed: true scheduled: true executed: true completed: true num_reg_dependent: 0 num_mem_ops: 0 event: 66297906
[cpu0_ROB] entry: 242 instr_id: 82664126 fetch_issued: true fetch_completed: true scheduled: true executed: true completed: false num_reg_dependent: 0 num_mem_ops: 1 event: 66297907
[cpu0_ROB] entry: 243 instr_id: 82664127 fetch_issued: true fetch_completed: true scheduled: true executed: true completed: false num_reg_dependent: 0 num_mem_ops: 1 event: 66297907
[cpu0_ROB] entry: 244 instr_id: 82664128 fetch_issued: true fetch_completed: true scheduled: true executed: true completed: false num_reg_dependent: 0 num_mem_ops: 1 event: 66297907
[cpu0_ROB] entry: 245 instr_id: 82664129 fetch_issued: true fetch_completed: true scheduled: true executed: true completed: false num_reg_dependent: 0 num_mem_ops: 1 event: 66297932
[cpu0_ROB] entry: 246 instr_id: 82664130 fetch_issued: true fetch_completed: true scheduled: true executed: true completed: true num_reg_dependent: 0 num_mem_ops: 0 event: 66297907
[cpu0_ROB] entry: 247 instr_id: 82664131 fetch_issued: true fetch_completed: true scheduled: true executed: true completed: false num_reg_dependent: 0 num_mem_ops: 1 event: 66297908
[cpu0_ROB] entry: 248 instr_id: 82664132 fetch_issued: true fetch_completed: true scheduled: true executed: true completed: false num_reg_dependent: 0 num_mem_ops: 1 event: 66297908
[cpu0_ROB] entry: 249 instr_id: 82664133 fetch_issued: true fetch_completed: true scheduled: true executed: true completed: false num_reg_dependent: 0 num_mem_ops: 1 event: 66297908
[cpu0_ROB] entry: 250 instr_id: 82664134 fetch_issued: true fetch_completed: true scheduled: true executed: true completed: false num_reg_dependent: 0 num_mem_ops: 1 event: 66297908
[...]
Phys reg: 144	 Arch reg:   1	 Producer: 82664007	 Valid: true	 Busy: true
Phys reg: 145	 Arch reg:   3	 Producer: 82663891	 Valid: true	 Busy: true
Phys reg: 146	 Arch reg:  21	 Producer: 82663915	 Valid: true	 Busy: true
Phys reg: 147	 Arch reg:  15	 Producer: 82664157	 Valid: true	 Busy: true
Phys reg: 148	 Arch reg:   1	 Producer: 82663950	 Valid: true	 Busy: true
Phys reg: 149	 Arch reg:   3	 Producer: 82663883	 Valid: true	 Busy: true
Phys reg: 150	 Arch reg:   1	 Producer: 82664186	 Valid: true	 Busy: true
Phys reg: 151	 Arch reg:  13	 Producer: 82663966	 Valid: true	 Busy: true
Phys reg: 152	 Arch reg:   2	 Producer: 82663902	 Valid: true	 Busy: true
Phys reg: 153	 Arch reg:   1	 Producer: 82664006	 Valid: true	 Busy: true
Phys reg: 154	 Arch reg:  20	 Producer: 82663982	 Valid: true	 Busy: true
Phys reg: 155	 Arch reg:  64	 Producer: 82637526	 Valid: true	 Busy: true
Phys reg: 156	 Arch reg:   3	 Producer: 82663977	 Valid: true	 Busy: true
Phys reg: 157	 Arch reg:  23	 Producer: 82663985	 Valid: true	 Busy: true
Phys reg: 158	 Arch reg:  19	 Producer: 82663912	 Valid: true	 Busy: true
Phys reg: 159	 Arch reg:  21	 Producer: 82663943	 Valid: true	 Busy: true
Phys reg: 160	 Arch reg:  21	 Producer: 82664011	 Valid: true	 Busy: true
Phys reg: 161	 Arch reg:   5	 Producer: 82663986	 Valid: true	 Busy: true
Phys reg: 162	 Arch reg:   3	 Producer: 82663945	 Valid: true	 Busy: true
Phys reg: 163	 Arch reg:  18	 Producer: 82663910	 Valid: true	 Busy: true
Phys reg: 164	 Arch reg:  24	 Producer: 82663987	 Valid: true	 Busy: true
Phys reg: 165	 Arch reg:   1	 Producer: 82663938	 Valid: true	 Busy: true
Phys reg: 166	 Arch reg:  27	 Producer: 82663922	 Valid: true	 Busy: true
Phys reg: 167	 Arch reg:   8	 Producer: 82664042	 Valid: true	 Busy: true
Phys reg: 168	 Arch reg:  17	 Producer: 82664035	 Valid: true	 Busy: true
Phys reg: 169	 Arch reg:  21	 Producer: 82664019	 Valid: true	 Busy: true
Phys reg: 170	 Arch reg:  34	 Producer: 69909651	 Valid: true	 Busy: true
Phys reg: 171	 Arch reg:   2	 Producer: 82663907	 Valid: true	 Busy: true
Phys reg: 172	 Arch reg:  13	 Producer: 82663964	 Valid: true	 Busy: true
Phys reg: 173	 Arch reg:   2	 Producer: 82663862	 Valid: true	 Busy: true
Phys reg: 174	 Arch reg:   4	 Producer: 82663911	 Valid: true	 Busy: true
Phys reg: 175	 Arch reg:   9	 Producer: 82664099	 Valid: true	 Busy: true
Phys reg: 176	 Arch reg:  17	 Producer: 82664173	 Valid: true	 Busy: true
Phys reg: 177	 Arch reg:  56	 Producer: 82635972	 Valid: true	 Busy: true
Phys reg: 178	 Arch reg:   3	 Producer: 82664021	 Valid: true	 Busy: true
Phys reg: 179	 Arch reg:  10	 Producer: 82664198	 Valid: true	 Busy: true
Phys reg: 180	 Arch reg:   3	 Producer: 82664054	 Valid: true	 Busy: true
Phys reg: 181	 Arch reg:   8	 Producer: 82663840	 Valid: true	 Busy: true
Phys reg: 182	 Arch reg:  16	 Producer: 82664046	 Valid: true	 Busy: true
Phys reg: 183	 Arch reg:  15	 Producer: 82664170	 Valid: true	 Busy: true
Phys reg: 184	 Arch reg:  21	 Producer: 82663942	 Valid: true	 Busy: true
Phys reg: 185	 Arch reg:   5	 Producer: 82664125	 Valid: true	 Busy: true
Phys reg: 186	 Arch reg:   5	 Producer: 82664061	 Valid: true	 Busy: true
Phys reg: 187	 Arch reg:   4	 Producer: 82664082	 Valid: true	 Busy: true
Phys reg: 188	 Arch reg:  60	 Producer: 82635974	 Valid: true	 Busy: true
Phys reg: 189	 Arch reg:  31	 Producer: 82663927	 Valid: true	 Busy: true
Phys reg: 190	 Arch reg:  26	 Producer: 82664191	 Valid: true	 Busy: true
Phys reg: 191	 Arch reg:   3	 Producer: 82664050	 Valid: true	 Busy: true
Phys reg: 192	 Arch reg:  16	 Producer: 82663974	 Valid: true	 Busy: true
Phys reg: 193	 Arch reg:  27	 Producer: 82664159	 Valid: true	 Busy: true
Phys reg: 194	 Arch reg:  17	 Producer: 82663949	 Valid: true	 Busy: true
Phys reg: 195	 Arch reg:  15	 Producer: 82664148	 Valid: true	 Busy: true
Phys reg: 196	 Arch reg:   3	 Producer: 82664020	 Valid: true	 Busy: true
Phys reg: 197	 Arch reg:   1	 Producer: 82663872	 Valid: true	 Busy: true
Phys reg: 198	 Arch reg:   4	 Producer: 82664051	 Valid: true	 Busy: true
Phys reg: 199	 Arch reg:  22	 Producer: 82663836	 Valid: true	 Busy: true
Phys reg: 200	 Arch reg:   3	 Producer: 82663947	 Valid: true	 Busy: true
Phys reg: 201	 Arch reg:  21	 Producer: 82664076	 Valid: true	 Busy: true
Phys reg: 202	 Arch reg:   1	 Producer: 82664112	 Valid: true	 Busy: true
Phys reg: 203	 Arch reg:  21	 Producer: 82663898	 Valid: true	 Busy: true
Phys reg: 204	 Arch reg:  47	 Producer: 76530251	 Valid: true	 Busy: true
Phys reg: 205	 Arch reg:   4	 Producer: 82664071	 Valid: true	 Busy: true
Phys reg: 206	 Arch reg:  26	 Producer: 82663854	 Valid: true	 Busy: true
Phys reg: 207	 Arch reg:  21	 Producer: 82664056	 Valid: true	 Busy: true
Phys reg: 208	 Arch reg:   8	 Producer: 82663962	 Valid: false	 Busy: true
Phys reg: 209	 Arch reg:   1	 Producer: 82663934	 Valid: true	 Busy: true
Phys reg: 210	 Arch reg:  26	 Producer: 82663989	 Valid: true	 Busy: true
Phys reg: 211	 Arch reg:  31	 Producer: 82663995	 Valid: true	 Busy: true
Phys reg: 212	 Arch reg:  27	 Producer: 82664023	 Valid: true	 Busy: true
Phys reg: 213	 Arch reg:  21	 Producer: 82663826	 Valid: true	 Busy: true
Phys reg: 214	 Arch reg:   1	 Producer: 82664003	 Valid: true	 Busy: true
Phys reg: 215	 Arch reg:  20	 Producer: 82664193	 Valid: true	 Busy: true
Phys reg: 216	 Arch reg:  28	 Producer: 82664190	 Valid: true	 Busy: true
Phys reg: 217	 Arch reg:  18	 Producer: 82664178	 Valid: true	 Busy: true
Phys reg: 218	 Arch reg:  18	 Producer: 82663796	 Valid: true	 Busy: true
Phys reg: 219	 Arch reg:  27	 Producer: 82664192	 Valid: true	 Busy: true
Phys reg: 220	 Arch reg:  24	 Producer: 82663864	 Valid: true	 Busy: true
Phys reg: 221	 Arch reg:   3	 Producer: 82664106	 Valid: true	 Busy: true
Phys reg: 222	 Arch reg:  15	 Producer: 82664147	 Valid: true	 Busy: true
Phys reg: 223	 Arch reg:   3	 Producer: 82664012	 Valid: true	 Busy: true
Phys reg: 224	 Arch reg:  25	 Producer: 82663988	 Valid: true	 Busy: true
Phys reg: 225	 Arch reg:   5	 Producer: 82664120	 Valid: true	 Busy: true
Phys reg: 226	 Arch reg:  22	 Producer: 82663984	 Valid: true	 Busy: true
Phys reg: 227	 Arch reg:   5	 Producer: 82663923	 Valid: true	 Busy: true
Phys reg: 228	 Arch reg:   5	 Producer: 82663846	 Valid: true	 Busy: true
Phys reg: 229	 Arch reg:   9	 Producer: 82664101	 Valid: true	 Busy: true
Phys reg: 230	 Arch reg:   3	 Producer: 82664087	 Valid: true	 Busy: true
Phys reg: 231	 Arch reg:   3	 Producer: 82663900	 Valid: true	 Busy: true
Phys reg: 232	 Arch reg:   8	 Producer: 82664140	 Valid: true	 Busy: true
Phys reg: 233	 Arch reg:   3	 Producer: 82663885	 Valid: true	 Busy: true
Phys reg: 234	 Arch reg:  21	 Producer: 82664164	 Valid: true	 Busy: true
Phys reg: 235	 Arch reg:  30	 Producer: 82663994	 Valid: true	 Busy: true
Phys reg: 236	 Arch reg:  23	 Producer: 82663822	 Valid: true	 Busy: true
Phys reg: 237	 Arch reg:  17	 Producer: 82664044	 Valid: true	 Busy: true
Phys reg: 238	 Arch reg:  36	 Producer: 76529784	 Valid: true	 Busy: true
Phys reg: 239	 Arch reg:   3	 Producer: 82664185	 Valid: true	 Busy: true
Phys reg: 240	 Arch reg:  23	 Producer: 82663917	 Valid: true	 Busy: true
Phys reg: 241	 Arch reg:   2	 Producer: 82663975	 Valid: true	 Busy: true
Phys reg: 242	 Arch reg:  23	 Producer: 82664104	 Valid: true	 Busy: true
Phys reg: 243	 Arch reg: 255	 Producer: 0	 Valid: false	 Busy: false
Phys reg: 244	 Arch reg:   3	 Producer: 82664089	 Valid: true	 Busy: true
Phys reg: 245	 Arch reg:  23	 Producer: 82664197	 Valid: true	 Busy: true
Phys reg: 246	 Arch reg:  55	 Producer: 69617549	 Valid: true	 Busy: true
Phys reg: 247	 Arch reg:  16	 Producer: 82663906	 Valid: true	 Busy: true
Phys reg: 248	 Arch reg:   3	 Producer: 82664077	 Valid: true	 Busy: true
Phys reg: 249	 Arch reg:   1	 Producer: 82664008	 Valid: true	 Busy: true
Phys reg: 250	 Arch reg:  13	 Producer: 82664063	 Valid: true	 Busy: true
Phys reg: 251	 Arch reg:   3	 Producer: 82663937	 Valid: true	 Busy: true
Phys reg: 252	 Arch reg:  14	 Producer: 82663755	 Valid: true	 Busy: true
Phys reg: 253	 Arch reg:  10	 Producer: 82663847	 Valid: true	 Busy: true
Phys reg: 254	 Arch reg:  44	 Producer: 69909666	 Valid: true	 Busy: true
Phys reg: 255	 Arch reg:  15	 Producer: 82664078	 Valid: true	 Busy: true
Phys reg: 256	 Arch reg:   3	 Producer: 82664040	 Valid: true	 Busy: true
Phys reg: 257	 Arch reg:  16	 Producer: 82663941	 Valid: true	 Busy: true
Phys reg: 258	 Arch reg:  20	 Producer: 82663914	 Valid: true	 Busy: true
Phys reg: 259	 Arch reg:  12	 Producer: 82664195	 Valid: true	 Busy: true
Phys reg: 260	 Arch reg:   3	 Producer: 82663909	 Valid: true	 Busy: true
Phys reg: 261	 Arch reg:  17	 Producer: 82663976	 Valid: true	 Busy: true
Phys reg: 262	 Arch reg:  27	 Producer: 82664163	 Valid: true	 Busy: true
Phys reg: 263	 Arch reg:   5	 Producer: 82663918	 Valid: true	 Busy: true
Phys reg: 264	 Arch reg:  43	 Producer: 76530076	 Valid: true	 Busy: true
Phys reg: 265	 Arch reg:  21	 Producer: 82664010	 Valid: true	 Busy: true
Phys reg: 266	 Arch reg:  15	 Producer: 82663843	 Valid: true	 Busy: true
Phys reg: 267	 Arch reg:   9	 Producer: 82664199	 Valid: true	 Busy: true
Phys reg: 268	 Arch reg:  16	 Producer: 82663963	 Valid: true	 Busy: true
Phys reg: 269	 Arch reg:  21	 Producer: 82663983	 Valid: true	 Busy: true
Phys reg: 270	 Arch reg:  17	 Producer: 82664017	 Valid: true	 Busy: true
Phys reg: 271	 Arch reg:  28	 Producer: 82663852	 Valid: true	 Busy: true
Phys reg: 272	 Arch reg:  51	 Producer: 69617545	 Valid: true	 Busy: true
Phys reg: 273	 Arch reg:  21	 Producer: 82664036	 Valid: true	 Busy: true
Phys reg: 274	 Arch reg:  14	 Producer: 82663999	 Valid: true	 Busy: true
Phys reg: 275	 Arch reg:   4	 Producer: 82664184	 Valid: true	 Busy: true
Phys reg: 276	 Arch reg:  21	 Producer: 82664057	 Valid: true	 Busy: true
Phys reg: 277	 Arch reg:   3	 Producer: 82664083	 Valid: true	 Busy: true
Phys reg: 278	 Arch reg:  25	 Producer: 82663765	 Valid: true	 Busy: true
Phys reg: 279	 Arch reg:  12	 Producer: 82664174	 Valid: true	 Busy: true

[cpu0_LQ] entry:   0 instr_id: 82663962 address: 0xffffffff7c0fe6c8 fetch_issued: false event_cycle: 66297871 waits on 82663952
[cpu0_LQ] entry:   1 empty
[cpu0_LQ] entry:   2 instr_id: 82664234 address: 0x1006d00c0 fetch_issued: false event_cycle: 36893488147419103 waits on 82663899
[cpu0_LQ] entry:   3 instr_id: 82664204 address: 0x100118830 fetch_issued: false event_cycle: 36893488147419103 waits on -
[cpu0_LQ] entry:   4 instr_id: 82664211 address: 0x1001189a8 fetch_issued: false event_cycle: 36893488147419103 waits on -
[cpu0_LQ] entry:   5 empty
[cpu0_LQ] entry:   6 empty
[cpu0_LQ] entry:   7 empty
[cpu0_LQ] entry:   8 empty
[cpu0_LQ] entry:   9 empty
[cpu0_LQ] entry:  10 instr_id: 82664221 address: 0x100118838 fetch_issued: false event_cycle: 36893488147419103 waits on -
[cpu0_LQ] entry:  11 empty
[cpu0_LQ] entry:  12 empty
[cpu0_LQ] entry:  13 empty
[cpu0_LQ] entry:  14 instr_id: 82664215 address: 0x100118a60 fetch_issued: false event_cycle: 36893488147419103 waits on -
[cpu0_LQ] entry:  15 empty
[cpu0_LQ] entry:  16 empty
[cpu0_LQ] entry:  17 empty
[cpu0_LQ] entry:  18 empty
[cpu0_LQ] entry:  19 empty
[cpu0_LQ] entry:  20 empty
[cpu0_LQ] entry:  21 empty
[cpu0_LQ] entry:  22 empty
[cpu0_LQ] entry:  23 empty
[cpu0_LQ] entry:  24 empty
[cpu0_LQ] entry:  25 empty
[cpu0_LQ] entry:  26 empty
[cpu0_LQ] entry:  27 empty
[cpu0_LQ] entry:  28 empty
[cpu0_LQ] entry:  29 empty
[cpu0_LQ] entry:  30 empty
[cpu0_LQ] entry:  31 empty
[cpu0_LQ] entry:  32 empty
[cpu0_LQ] entry:  33 empty
[cpu0_LQ] entry:  34 empty
[cpu0_LQ] entry:  35 empty
[cpu0_LQ] entry:  36 empty
[cpu0_LQ] entry:  37 empty
[cpu0_LQ] entry:  38 empty
[cpu0_LQ] entry:  39 empty
[cpu0_LQ] entry:  40 empty
[cpu0_LQ] entry:  41 empty
[cpu0_LQ] entry:  42 empty
[cpu0_LQ] entry:  43 empty
[cpu0_LQ] entry:  44 empty
[cpu0_LQ] entry:  45 empty
[cpu0_LQ] entry:  46 empty
[cpu0_LQ] entry:  47 empty
[cpu0_LQ] entry:  48 empty
[cpu0_LQ] entry:  49 empty
[cpu0_LQ] entry:  50 empty
[cpu0_LQ] entry:  51 empty
[cpu0_LQ] entry:  52 empty
[cpu0_LQ] entry:  53 empty
[cpu0_LQ] entry:  54 empty
[cpu0_LQ] entry:  55 empty
[cpu0_LQ] entry:  56 empty
[cpu0_LQ] entry:  57 empty
[cpu0_LQ] entry:  58 empty
[cpu0_LQ] entry:  59 empty
[cpu0_LQ] entry:  60 empty
[cpu0_LQ] entry:  61 empty
[cpu0_LQ] entry:  62 empty
[cpu0_LQ] entry:  63 empty
[cpu0_LQ] entry:  64 empty
[cpu0_LQ] entry:  65 empty
[cpu0_LQ] entry:  66 empty
[cpu0_LQ] entry:  67 empty
[cpu0_LQ] entry:  68 empty
[cpu0_LQ] entry:  69 empty
[cpu0_LQ] entry:  70 empty
[cpu0_LQ] entry:  71 empty
[cpu0_LQ] entry:  72 empty
[cpu0_LQ] entry:  73 empty
[cpu0_LQ] entry:  74 empty
[cpu0_LQ] entry:  75 empty
[cpu0_LQ] entry:  76 empty
[cpu0_LQ] entry:  77 empty
[cpu0_LQ] entry:  78 empty
[cpu0_LQ] entry:  79 empty
[cpu0_LQ] entry:  80 empty
[cpu0_LQ] entry:  81 empty
[cpu0_LQ] entry:  82 empty
[cpu0_LQ] entry:  83 empty
[cpu0_LQ] entry:  84 empty
[cpu0_LQ] entry:  85 empty
[cpu0_LQ] entry:  86 empty
[cpu0_LQ] entry:  87 empty
[cpu0_LQ] entry:  88 empty
[cpu0_LQ] entry:  89 empty
[cpu0_LQ] entry:  90 empty
[cpu0_LQ] entry:  91 empty
[cpu0_LQ] entry:  92 empty
[cpu0_LQ] entry:  93 empty
[cpu0_LQ] entry:  94 empty
[cpu0_LQ] entry:  95 empty
[cpu0_LQ] entry:  96 empty
[cpu0_LQ] entry:  97 empty
[cpu0_LQ] entry:  98 empty
[cpu0_LQ] entry:  99 empty
[cpu0_LQ] entry: 100 empty
[cpu0_LQ] entry: 101 empty
[cpu0_LQ] entry: 102 empty
[cpu0_LQ] entry: 103 empty
[cpu0_LQ] entry: 104 empty
[cpu0_LQ] entry: 105 empty
[cpu0_LQ] entry: 106 empty
[cpu0_LQ] entry: 107 empty
[cpu0_LQ] entry: 108 empty
[cpu0_LQ] entry: 109 empty
[cpu0_LQ] entry: 110 empty
[cpu0_LQ] entry: 111 empty
[cpu0_LQ] entry: 112 empty
[cpu0_LQ] entry: 113 empty
[cpu0_LQ] entry: 114 empty
[cpu0_LQ] entry: 115 empty
[cpu0_LQ] entry: 116 empty
[cpu0_LQ] entry: 117 empty
[cpu0_LQ] entry: 118 empty
[cpu0_LQ] entry: 119 empty
[cpu0_LQ] entry: 120 empty
[cpu0_LQ] entry: 121 empty
[cpu0_LQ] entry: 122 empty
[cpu0_LQ] entry: 123 empty
[cpu0_LQ] entry: 124 empty
[cpu0_LQ] entry: 125 empty
[cpu0_LQ] entry: 126 empty
[cpu0_LQ] entry: 127 empty

[cpu0_SQ] entry:   0 instr_id: 1099594291660 address: 0x100118a48 fetch_issued: false event_cycle: 36893488147419103 LQ waiting: []
[cpu0_SQ] entry:   1 instr_id: 82663895 address: 0x1001189b0 fetch_issued: false event_cycle: 66297875 LQ waiting: []
[cpu0_SQ] entry:   2 instr_id: 82663896 address: 0x1001189b8 fetch_issued: false event_cycle: 66297875 LQ waiting: []
[cpu0_SQ] entry:   3 instr_id: 82663897 address: 0x1001189c0 fetch_issued: false event_cycle: 66297875 LQ waiting: []
[cpu0_SQ] entry:   4 instr_id: 82663899 address: 0x1006d00c0 fetch_issued: false event_cycle: 66297889 LQ waiting: [82663899]
[cpu0_SQ] entry:   5 instr_id: 82663951 address: 0x100118a6d fetch_issued: false event_cycle: 66297827 LQ waiting: []
[cpu0_SQ] entry:   6 instr_id: 82663952 address: 0xffffffff7c0fe6c8 fetch_issued: false event_cycle: 66297867 LQ waiting: [82663952]
[cpu0_SQ] entry:   7 instr_id: 82664032 address: 0xffffffff28f50858 fetch_issued: false event_cycle: 66297924 LQ waiting: []
[cpu0_SQ] entry:   8 instr_id: 82664045 address: 0xffffffff7c0fe7c8 fetch_issued: false event_cycle: 66297931 LQ waiting: []
[cpu0_SQ] entry:   9 instr_id: 82664069 address: 0xffffffff28f50868 fetch_issued: false event_cycle: 66297944 LQ waiting: []
[cpu0_SQ] entry:  10 instr_id: 82664084 address: 0x100118a08 fetch_issued: false event_cycle: 66297943 LQ waiting: []
[cpu0_SQ] entry:  11 instr_id: 82664090 address: 0xffffffff7c0f8700 fetch_issued: false event_cycle: 66297900 LQ waiting: []
[cpu0_SQ] entry:  12 instr_id: 82664100 address: 0xffffffff7c0fe6e8 fetch_issued: false event_cycle: 66297901 LQ waiting: []
[cpu0_SQ] entry:  13 instr_id: 82664113 address: 0xffffffff7c0fe700 fetch_issued: false event_cycle: 66297911 LQ waiting: []
[cpu0_SQ] entry:  14 instr_id: 82664115 address: 0xffffffff7c0fe708 fetch_issued: false event_cycle: 66297904 LQ waiting: []
[cpu0_SQ] entry:  15 instr_id: 82664117 address: 0xffffffff7c0fe710 fetch_issued: false event_cycle: 66297905 LQ waiting: []
[cpu0_SQ] entry:  16 instr_id: 82664119 address: 0xffffffff7c0fe718 fetch_issued: false event_cycle: 66297905 LQ waiting: []
[cpu0_SQ] entry:  17 instr_id: 82664121 address: 0xffffffff7c0fe720 fetch_issued: false event_cycle: 66297906 LQ waiting: []
[cpu0_SQ] entry:  18 instr_id: 82664122 address: 0xffffffff7c0fe728 fetch_issued: false event_cycle: 66297906 LQ waiting: []
[cpu0_SQ] entry:  19 instr_id: 82664123 address: 0xffffffff7c0fe730 fetch_issued: false event_cycle: 66297906 LQ waiting: []
[cpu0_SQ] entry:  20 instr_id: 82664124 address: 0xffffffff7c0fe738 fetch_issued: false event_cycle: 66297906 LQ waiting: []
[cpu0_SQ] entry:  21 instr_id: 82664126 address: 0xffffffff7c0fe740 fetch_issued: false event_cycle: 66297907 LQ waiting: []
[cpu0_SQ] entry:  22 instr_id: 82664127 address: 0xffffffff7c0fe748 fetch_issued: false event_cycle: 66297907 LQ waiting: []
[cpu0_SQ] entry:  23 instr_id: 82664128 address: 0xffffffff7c0fe750 fetch_issued: false event_cycle: 66297907 LQ waiting: []
[cpu0_SQ] entry:  24 instr_id: 82664129 address: 0xffffffff7c0fe758 fetch_issued: false event_cycle: 66297932 LQ waiting: []
[cpu0_SQ] entry:  25 instr_id: 82664131 address: 0xffffffff7c0fe760 fetch_issued: false event_cycle: 66297908 LQ waiting: []
[cpu0_SQ] entry:  26 instr_id: 82664132 address: 0xffffffff7c0fe768 fetch_issued: false event_cycle: 66297908 LQ waiting: []
[cpu0_SQ] entry:  27 instr_id: 82664133 address: 0xffffffff7c0fe770 fetch_issued: false event_cycle: 66297908 LQ waiting: []
[cpu0_SQ] entry:  28 instr_id: 82664134 address: 0xffffffff7c0fe778 fetch_issued: false event_cycle: 66297908 LQ waiting: []
[cpu0_SQ] entry:  29 instr_id: 82664138 address: 0xffffffff7c0fe670 fetch_issued: false event_cycle: 66297908 LQ waiting: []
[cpu0_SQ] entry:  30 instr_id: 82664139 address: 0xffffffff7c0fe678 fetch_issued: false event_cycle: 66297908 LQ waiting: []
[cpu0_SQ] entry:  31 instr_id: 82664141 address: 0x1001189b8 fetch_issued: false event_cycle: 66297909 LQ waiting: []
[cpu0_SQ] entry:  32 instr_id: 82664143 address: 0x1001189b0 fetch_issued: false event_cycle: 66297910 LQ waiting: []
[cpu0_SQ] entry:  33 instr_id: 82664145 address: 0x100118a48 fetch_issued: false event_cycle: 66297911 LQ waiting: []
[cpu0_SQ] entry:  34 instr_id: 82664155 address: 0x1001189c0 fetch_issued: false event_cycle: 66297912 LQ waiting: []
[cpu0_SQ] entry:  35 instr_id: 82664171 address: 0x100118a48 fetch_issued: false event_cycle: 66297917 LQ waiting: []
[cpu0_SQ] entry:  36 instr_id: 82664194 address: 0xffffffff7cb01880 fetch_issued: false event_cycle: 66297928 LQ waiting: []
[cpu0_SQ] entry:  37 instr_id: 82664208 address: 0x100118a48 fetch_issued: false event_cycle: 36893488147419103 LQ waiting: []

cpu0_STLB_MSHR empty

cpu0_STLB_tags empty

cpu0_STLB_translation empty

cpu0_STLB_RQ empty

cpu0_STLB_WQ empty

cpu0_STLB_PQ empty

cpu0_STLB_RQ empty

cpu0_STLB_WQ empty

cpu0_STLB_PQ empty

cpu0_STLB_RQ empty

cpu0_STLB_WQ empty

cpu0_STLB_PQ empty

cpu0_L2C_MSHR empty

cpu0_L2C_tags empty

cpu0_L2C_translation empty

cpu0_L2C_RQ empty

cpu0_L2C_WQ empty

cpu0_L2C_PQ empty

cpu0_L2C_RQ empty

cpu0_L2C_WQ empty

cpu0_L2C_PQ empty

cpu0_L1I_MSHR empty

cpu0_L1I_tags empty

cpu0_L1I_translation empty

cpu0_L1I_RQ empty

cpu0_L1I_WQ empty

cpu0_L1I_PQ empty

cpu0_L1D_MSHR empty

cpu0_L1D_tags empty

cpu0_L1D_translation empty

cpu0_L1D_RQ empty

cpu0_L1D_WQ empty

cpu0_L1D_PQ empty

cpu0_L1D_RQ empty

cpu0_L1D_WQ empty

cpu0_L1D_PQ empty

cpu0_ITLB_MSHR empty

cpu0_ITLB_tags empty

cpu0_ITLB_translation empty

cpu0_ITLB_RQ empty

cpu0_ITLB_WQ empty

cpu0_ITLB_PQ empty

cpu0_DTLB_MSHR empty

cpu0_DTLB_tags empty

cpu0_DTLB_translation empty

cpu0_DTLB_RQ empty

cpu0_DTLB_WQ empty

cpu0_DTLB_PQ empty

LLC_MSHR empty

LLC_tags empty

LLC_translation empty

LLC_RQ./run_champsim_all.sh: line 55: 2532724 Aborted                 (core dumped) "${cmd[@]}"
