[2025-09-17 18:55:05] START suite=cs trace=nutch_phase2_core3
CMD: ./bin/champsim -c -w 20000000 -i 100000000 /home/ho/prefetch_aware_insertion_ptr/traces/cs/nutch_phase2_core3.trace.xz
[VMEM] WARNING: physical memory size is smaller than virtual memory size.

*** ChampSim Multicore Out-of-Order Simulator ***
Warmup Instructions: 20000000
Simulation Instructions: 100000000
Number of CPUs: 1
Page size: 4096

Off-chip DRAM Size: 16 GiB Channels: 1 Width: 64-bit Data Rate: 3205 MT/s
Heartbeat CPU 0 instructions: 10000002 cycles: 2002676 heartbeat IPC: 4.993 cumulative IPC: 4.993 (Simulation time: 00 hr 00 min 29 sec)
Heartbeat CPU 0 instructions: 20000003 cycles: 4006225 heartbeat IPC: 4.991 cumulative IPC: 4.992 (Simulation time: 00 hr 01 min 00 sec)
Warmup finished CPU 0 instructions: 20000003 cycles: 4006225 cumulative IPC: 4.992 (Simulation time: 00 hr 01 min 00 sec)
Warmup complete CPU 0 instructions: 20000003 cycles: 4006225 cumulative IPC: 4.992 (Simulation time: 00 hr 01 min 00 sec)
Heartbeat CPU 0 instructions: 30000003 cycles: 11631723 heartbeat IPC: 1.311 cumulative IPC: 1.311 (Simulation time: 00 hr 01 min 47 sec)
Heartbeat CPU 0 instructions: 40000003 cycles: 20803508 heartbeat IPC: 1.09 cumulative IPC: 1.191 (Simulation time: 00 hr 02 min 45 sec)
Heartbeat CPU 0 instructions: 50000003 cycles: 30580139 heartbeat IPC: 1.023 cumulative IPC: 1.129 (Simulation time: 00 hr 03 min 44 sec)
Heartbeat CPU 0 instructions: 60000003 cycles: 42386220 heartbeat IPC: 0.847 cumulative IPC: 1.042 (Simulation time: 00 hr 04 min 44 sec)
Heartbeat CPU 0 instructions: 70000003 cycles: 60270669 heartbeat IPC: 0.5591 cumulative IPC: 0.8887 (Simulation time: 00 hr 06 min 07 sec)
Heartbeat CPU 0 instructions: 80000003 cycles: 78363270 heartbeat IPC: 0.5527 cumulative IPC: 0.8069 (Simulation time: 00 hr 07 min 36 sec)
Heartbeat CPU 0 instructions: 90000003 cycles: 96483349 heartbeat IPC: 0.5519 cumulative IPC: 0.7569 (Simulation time: 00 hr 09 min 08 sec)
*** Reached end of trace: (0, "/home/ho/prefetch_aware_insertion_ptr/traces/cs/nutch_phase2_core3.trace.xz")
Heartbeat CPU 0 instructions: 100000003 cycles: 114602863 heartbeat IPC: 0.5519 cumulative IPC: 0.7233 (Simulation time: 00 hr 10 min 44 sec)
Heartbeat CPU 0 instructions: 110000003 cycles: 132677456 heartbeat IPC: 0.5533 cumulative IPC: 0.6995 (Simulation time: 00 hr 12 min 05 sec)
Heartbeat CPU 0 instructions: 120000003 cycles: 150782066 heartbeat IPC: 0.5523 cumulative IPC: 0.6813 (Simulation time: 00 hr 13 min 34 sec)
Simulation finished CPU 0 instructions: 100000000 cycles: 146775841 cumulative IPC: 0.6813 (Simulation time: 00 hr 13 min 34 sec)
Simulation complete CPU 0 instructions: 100000000 cycles: 146775841 cumulative IPC: 0.6813 (Simulation time: 00 hr 13 min 34 sec)

ChampSim completed all CPUs

=== Simulation ===
CPU 0 runs /home/ho/prefetch_aware_insertion_ptr/traces/cs/nutch_phase2_core3.trace.xz

Region of Interest Statistics

CPU 0 cumulative IPC: 0.6813 instructions: 100000000 cycles: 146775841
CPU 0 Branch Prediction Accuracy: 99.98% MPKI: 0.00193 Average ROB Occupancy at Mispredict: 1.823e+05
Branch type MPKI
BRANCH_DIRECT_JUMP: 0.00013
BRANCH_INDIRECT: 0.00028
BRANCH_CONDITIONAL: 0.00152
BRANCH_DIRECT_CALL: 0
BRANCH_INDIRECT_CALL: 0
BRANCH_RETURN: 0


====Backend Stall Breakdown====
ROB_STALL: 3464
LQ_STALL: 0
SQ_STALL: 2181


====ROB Stall Breakdown====

== Average ==
ADDR_TRANS: 286
REPLAY_LOAD: 113
NON_REPLAY_LOAD: 72.054054

== Total ==
ADDR_TRANS: 572
REPLAY_LOAD: 226
NON_REPLAY_LOAD: 2666

== Counts ==
ADDR_TRANS: 2
REPLAY_LOAD: 2
NON_REPLAY_LOAD: 37

cpu0->cpu0_STLB TOTAL        ACCESS:        132 HIT:         65 MISS:         67 MSHR_MERGE:          0
cpu0->cpu0_STLB LOAD         ACCESS:        132 HIT:         65 MISS:         67 MSHR_MERGE:          0
cpu0->cpu0_STLB RFO          ACCESS:          0 HIT:          0 MISS:          0 MSHR_MERGE:          0
cpu0->cpu0_STLB PREFETCH     ACCESS:          0 HIT:          0 MISS:          0 MSHR_MERGE:          0
cpu0->cpu0_STLB WRITE        ACCESS:          0 HIT:          0 MISS:          0 MSHR_MERGE:          0
cpu0->cpu0_STLB TRANSLATION  ACCESS:          0 HIT:          0 MISS:          0 MSHR_MERGE:          0
cpu0->cpu0_STLB PREFETCH REQUESTED:          0 ISSUED:          0 USEFUL:          0 USELESS:          0
cpu0->cpu0_STLB AVERAGE MISS LATENCY: 710 cycles
cpu0->cpu0_L2C TOTAL        ACCESS:        604 HIT:         18 MISS:        586 MSHR_MERGE:         13
cpu0->cpu0_L2C LOAD         ACCESS:        401 HIT:         16 MISS:        385 MSHR_MERGE:          0
cpu0->cpu0_L2C RFO          ACCESS:         33 HIT:          0 MISS:         33 MSHR_MERGE:          0
cpu0->cpu0_L2C PREFETCH     ACCESS:         31 HIT:          1 MISS:         30 MSHR_MERGE:         13
cpu0->cpu0_L2C WRITE        ACCESS:          0 HIT:          0 MISS:          0 MSHR_MERGE:          0
cpu0->cpu0_L2C TRANSLATION  ACCESS:        139 HIT:          1 MISS:        138 MSHR_MERGE:          0
cpu0->cpu0_L2C PREFETCH REQUESTED:         19 ISSUED:         19 USEFUL:          0 USELESS:          0
cpu0->cpu0_L2C AVERAGE MISS LATENCY: 129.9 cycles
cpu0->cpu0_L1I TOTAL        ACCESS:       2924 HIT:       2577 MISS:        347 MSHR_MERGE:         85
cpu0->cpu0_L1I LOAD         ACCESS:       2924 HIT:       2577 MISS:        347 MSHR_MERGE:         85
cpu0->cpu0_L1I RFO          ACCESS:          0 HIT:          0 MISS:          0 MSHR_MERGE:          0
cpu0->cpu0_L1I PREFETCH     ACCESS:          0 HIT:          0 MISS:          0 MSHR_MERGE:          0
cpu0->cpu0_L1I WRITE        ACCESS:          0 HIT:          0 MISS:          0 MSHR_MERGE:          0
cpu0->cpu0_L1I TRANSLATION  ACCESS:          0 HIT:          0 MISS:          0 MSHR_MERGE:          0
cpu0->cpu0_L1I PREFETCH REQUESTED:          0 ISSUED:          0 USEFUL:          0 USELESS:          0
cpu0->cpu0_L1I AVERAGE MISS LATENCY: 139.8 cycles
cpu0->cpu0_L1D TOTAL        ACCESS:   24517734 HIT:   24517226 MISS:        508 MSHR_MERGE:        185
cpu0->cpu0_L1D LOAD         ACCESS:   23266332 HIT:   23266114 MISS:        218 MSHR_MERGE:         79
cpu0->cpu0_L1D RFO          ACCESS:          0 HIT:          0 MISS:          0 MSHR_MERGE:          0
cpu0->cpu0_L1D PREFETCH     ACCESS:         28 HIT:          7 MISS:         21 MSHR_MERGE:          9
cpu0->cpu0_L1D WRITE        ACCESS:    1251227 HIT:    1251098 MISS:        129 MSHR_MERGE:         96
cpu0->cpu0_L1D TRANSLATION  ACCESS:        147 HIT:          7 MISS:        140 MSHR_MERGE:          1
cpu0->cpu0_L1D PREFETCH REQUESTED:         28 ISSUED:         28 USEFUL:          0 USELESS:          0
cpu0->cpu0_L1D AVERAGE MISS LATENCY: 131.6 cycles
cpu0->cpu0_ITLB TOTAL        ACCESS:       2306 HIT:       2242 MISS:         64 MSHR_MERGE:         37
cpu0->cpu0_ITLB LOAD         ACCESS:       2306 HIT:       2242 MISS:         64 MSHR_MERGE:         37
cpu0->cpu0_ITLB RFO          ACCESS:          0 HIT:          0 MISS:          0 MSHR_MERGE:          0
cpu0->cpu0_ITLB PREFETCH     ACCESS:          0 HIT:          0 MISS:          0 MSHR_MERGE:          0
cpu0->cpu0_ITLB WRITE        ACCESS:          0 HIT:          0 MISS:          0 MSHR_MERGE:          0
cpu0->cpu0_ITLB TRANSLATION  ACCESS:          0 HIT:          0 MISS:          0 MSHR_MERGE:          0
cpu0->cpu0_ITLB PREFETCH REQUESTED:          0 ISSUED:          0 USEFUL:          0 USELESS:          0
cpu0->cpu0_ITLB AVERAGE MISS LATENCY: 643.3 cycles
cpu0->cpu0_DTLB TOTAL        ACCESS:   24517385 HIT:   24517199 MISS:        186 MSHR_MERGE:         81
cpu0->cpu0_DTLB LOAD         ACCESS:   24517385 HIT:   24517199 MISS:        186 MSHR_MERGE:         81
cpu0->cpu0_DTLB RFO          ACCESS:          0 HIT:          0 MISS:          0 MSHR_MERGE:          0
cpu0->cpu0_DTLB PREFETCH     ACCESS:          0 HIT:          0 MISS:          0 MSHR_MERGE:          0
cpu0->cpu0_DTLB WRITE        ACCESS:          0 HIT:          0 MISS:          0 MSHR_MERGE:          0
cpu0->cpu0_DTLB TRANSLATION  ACCESS:          0 HIT:          0 MISS:          0 MSHR_MERGE:          0
cpu0->cpu0_DTLB PREFETCH REQUESTED:          0 ISSUED:          0 USEFUL:          0 USELESS:          0
cpu0->cpu0_DTLB AVERAGE MISS LATENCY: 292.2 cycles
cpu0->LLC TOTAL        ACCESS:        573 HIT:          0 MISS:        573 MSHR_MERGE:          0
cpu0->LLC LOAD         ACCESS:        385 HIT:          0 MISS:        385 MSHR_MERGE:          0
cpu0->LLC RFO          ACCESS:         33 HIT:          0 MISS:         33 MSHR_MERGE:          0
cpu0->LLC PREFETCH     ACCESS:         17 HIT:          0 MISS:         17 MSHR_MERGE:          0
cpu0->LLC WRITE        ACCESS:          0 HIT:          0 MISS:          0 MSHR_MERGE:          0
cpu0->LLC TRANSLATION  ACCESS:        138 HIT:          0 MISS:        138 MSHR_MERGE:          0
cpu0->LLC PREFETCH REQUESTED:          0 ISSUED:          0 USEFUL:          0 USELESS:          0
cpu0->LLC AVERAGE MISS LATENCY: 109.2 cycles

DRAM Statistics

Channel 0 RQ ROW_BUFFER_HIT:          6
  ROW_BUFFER_MISS:        567
  AVG DBUS CONGESTED CYCLE: 2.967
Channel 0 WQ ROW_BUFFER_HIT:          0
  ROW_BUFFER_MISS:          0
  FULL:          0
Channel 0 REFRESHES ISSUED:      12232

==== TLB→Cache/MEM Breakdown (ROI totals across all caches) ====

DTLB
  (case)                                L1I          L1D          L2C          LLC          MEM
  STLB hit → final level                  0           76            0            0           28
---------------------------------------------------------------
  STLB miss resolved @ L1D                0            0            0            0           14
  STLB miss resolved @ L2C                0            0            0            0            3
  STLB miss resolved @ LLC                0            0            0            0            0
  STLB miss resolved @ MEM                0            0            0            0           79

ITLB
  (case)                                L1I          L1D          L2C          LLC          MEM
  STLB hit → final level                  1            0            0            0           23
---------------------------------------------------------------
  STLB miss resolved @ L1D                0            0            0            0            2
  STLB miss resolved @ L2C                0            0            0            0            0
  STLB miss resolved @ LLC                0            0            0            0            0
  STLB miss resolved @ MEM                0            0            0            0           57
[2025-09-17 19:08:39] END   suite=cs trace=nutch_phase2_core3 (rc=0)
