[2025-09-17 14:57:41] START suite=gap trace=bfs-14
CMD: ./bin/champsim -w 20000000 -i 100000000 /home/ho/prefetch_aware_insertion_ptr/traces/gap/bfs-14.trace.gz
[VMEM] WARNING: physical memory size is smaller than virtual memory size.

*** ChampSim Multicore Out-of-Order Simulator ***
Warmup Instructions: 20000000
Simulation Instructions: 100000000
Number of CPUs: 1
Page size: 4096

Off-chip DRAM Size: 16 GiB Channels: 1 Width: 64-bit Data Rate: 3205 MT/s
Heartbeat CPU 0 instructions: 10000003 cycles: 2860125 heartbeat IPC: 3.496 cumulative IPC: 3.496 (Simulation time: 00 hr 01 min 04 sec)
Heartbeat CPU 0 instructions: 20000003 cycles: 7428229 heartbeat IPC: 2.189 cumulative IPC: 2.692 (Simulation time: 00 hr 02 min 35 sec)
Warmup finished CPU 0 instructions: 20000003 cycles: 7428229 cumulative IPC: 2.692 (Simulation time: 00 hr 02 min 35 sec)
Warmup complete CPU 0 instructions: 20000003 cycles: 7428229 cumulative IPC: 2.692 (Simulation time: 00 hr 02 min 35 sec)
Heartbeat CPU 0 instructions: 30000004 cycles: 38787586 heartbeat IPC: 0.3189 cumulative IPC: 0.3189 (Simulation time: 00 hr 06 min 57 sec)
Heartbeat CPU 0 instructions: 40000004 cycles: 70462808 heartbeat IPC: 0.3157 cumulative IPC: 0.3173 (Simulation time: 00 hr 11 min 10 sec)
Heartbeat CPU 0 instructions: 50000004 cycles: 102931096 heartbeat IPC: 0.308 cumulative IPC: 0.3141 (Simulation time: 00 hr 15 min 28 sec)
Heartbeat CPU 0 instructions: 60000005 cycles: 120637891 heartbeat IPC: 0.5648 cumulative IPC: 0.3533 (Simulation time: 00 hr 18 min 00 sec)
Heartbeat CPU 0 instructions: 70000009 cycles: 122655157 heartbeat IPC: 4.957 cumulative IPC: 0.4339 (Simulation time: 00 hr 18 min 49 sec)
Heartbeat CPU 0 instructions: 80000009 cycles: 129120846 heartbeat IPC: 1.547 cumulative IPC: 0.493 (Simulation time: 00 hr 20 min 11 sec)
Heartbeat CPU 0 instructions: 90000009 cycles: 144027985 heartbeat IPC: 0.6708 cumulative IPC: 0.5124 (Simulation time: 00 hr 22 min 40 sec)
Heartbeat CPU 0 instructions: 100000010 cycles: 171334250 heartbeat IPC: 0.3662 cumulative IPC: 0.4881 (Simulation time: 00 hr 26 min 28 sec)
Heartbeat CPU 0 instructions: 110000011 cycles: 198582961 heartbeat IPC: 0.367 cumulative IPC: 0.4708 (Simulation time: 00 hr 30 min 09 sec)
Simulation finished CPU 0 instructions: 100000000 cycles: 221126428 cumulative IPC: 0.4522 (Simulation time: 00 hr 34 min 16 sec)
Simulation complete CPU 0 instructions: 100000000 cycles: 221126428 cumulative IPC: 0.4522 (Simulation time: 00 hr 34 min 16 sec)

ChampSim completed all CPUs

=== Simulation ===
CPU 0 runs /home/ho/prefetch_aware_insertion_ptr/traces/gap/bfs-14.trace.gz

Region of Interest Statistics

CPU 0 cumulative IPC: 0.4522 instructions: 100000000 cycles: 221126428
CPU 0 Branch Prediction Accuracy: 81.99% MPKI: 37.95 Average ROB Occupancy at Mispredict: 4.104
Branch type MPKI
BRANCH_DIRECT_JUMP: 6e-05
BRANCH_INDIRECT: 1e-05
BRANCH_CONDITIONAL: 37.95
BRANCH_DIRECT_CALL: 0.00014
BRANCH_INDIRECT_CALL: 2e-05
BRANCH_RETURN: 0.0002


====Backend Stall Breakdown====
ROB_STALL: 639295
LQ_STALL: 0
SQ_STALL: 144850


====ROB Stall Breakdown====

== Average ==
ADDR_TRANS: 91.47599
REPLAY_LOAD: 120.216
NON_REPLAY_LOAD: 60.54999

== Total ==
ADDR_TRANS: 85713
REPLAY_LOAD: 184772
NON_REPLAY_LOAD: 368810

== Counts ==
ADDR_TRANS: 937
REPLAY_LOAD: 1537
NON_REPLAY_LOAD: 6091

cpu0->cpu0_STLB TOTAL        ACCESS:     107975 HIT:      13595 MISS:      94380 MSHR_MERGE:          0
cpu0->cpu0_STLB LOAD         ACCESS:     107975 HIT:      13595 MISS:      94380 MSHR_MERGE:          0
cpu0->cpu0_STLB RFO          ACCESS:          0 HIT:          0 MISS:          0 MSHR_MERGE:          0
cpu0->cpu0_STLB PREFETCH     ACCESS:          0 HIT:          0 MISS:          0 MSHR_MERGE:          0
cpu0->cpu0_STLB WRITE        ACCESS:          0 HIT:          0 MISS:          0 MSHR_MERGE:          0
cpu0->cpu0_STLB TRANSLATION  ACCESS:          0 HIT:          0 MISS:          0 MSHR_MERGE:          0
cpu0->cpu0_STLB PREFETCH REQUESTED:          0 ISSUED:          0 USEFUL:          0 USELESS:          0
cpu0->cpu0_STLB AVERAGE MISS LATENCY: 209.9 cycles
cpu0->cpu0_L2C TOTAL        ACCESS:    5760567 HIT:    2927966 MISS:    2832601 MSHR_MERGE:     515849
cpu0->cpu0_L2C LOAD         ACCESS:    2247890 HIT:    1390003 MISS:     857887 MSHR_MERGE:      39097
cpu0->cpu0_L2C RFO          ACCESS:      81165 HIT:       4524 MISS:      76641 MSHR_MERGE:          0
cpu0->cpu0_L2C PREFETCH     ACCESS:    3005633 HIT:    1218863 MISS:    1786770 MSHR_MERGE:     476752
cpu0->cpu0_L2C WRITE        ACCESS:     311919 HIT:     311911 MISS:          8 MSHR_MERGE:          0
cpu0->cpu0_L2C TRANSLATION  ACCESS:     113960 HIT:       2665 MISS:     111295 MSHR_MERGE:          0
cpu0->cpu0_L2C PREFETCH REQUESTED:    2374897 ISSUED:    2374882 USEFUL:     887521 USELESS:     174293
cpu0->cpu0_L2C AVERAGE MISS LATENCY: 109.6 cycles
cpu0->cpu0_L1I TOTAL        ACCESS:    3355846 HIT:    3355829 MISS:         17 MSHR_MERGE:          1
cpu0->cpu0_L1I LOAD         ACCESS:    3355846 HIT:    3355829 MISS:         17 MSHR_MERGE:          1
cpu0->cpu0_L1I RFO          ACCESS:          0 HIT:          0 MISS:          0 MSHR_MERGE:          0
cpu0->cpu0_L1I PREFETCH     ACCESS:          0 HIT:          0 MISS:          0 MSHR_MERGE:          0
cpu0->cpu0_L1I WRITE        ACCESS:          0 HIT:          0 MISS:          0 MSHR_MERGE:          0
cpu0->cpu0_L1I TRANSLATION  ACCESS:          0 HIT:          0 MISS:          0 MSHR_MERGE:          0
cpu0->cpu0_L1I PREFETCH REQUESTED:          0 ISSUED:          0 USEFUL:          0 USELESS:          0
cpu0->cpu0_L1I AVERAGE MISS LATENCY: 183.8 cycles
cpu0->cpu0_L1D TOTAL        ACCESS:   26296910 HIT:   21141231 MISS:    5155679 MSHR_MERGE:    2081918
cpu0->cpu0_L1D LOAD         ACCESS:   21597207 HIT:   18233682 MISS:    3363525 MSHR_MERGE:    1115651
cpu0->cpu0_L1D RFO          ACCESS:          0 HIT:          0 MISS:          0 MSHR_MERGE:          0
cpu0->cpu0_L1D PREFETCH     ACCESS:    1199622 HIT:     539056 MISS:     660566 MSHR_MERGE:      29804
cpu0->cpu0_L1D WRITE        ACCESS:    3310898 HIT:    2293978 MISS:    1016920 MSHR_MERGE:     935755
cpu0->cpu0_L1D TRANSLATION  ACCESS:     189183 HIT:      74515 MISS:     114668 MSHR_MERGE:        708
cpu0->cpu0_L1D PREFETCH REQUESTED:    1222061 ISSUED:    1199617 USEFUL:     523848 USELESS:     103772
cpu0->cpu0_L1D AVERAGE MISS LATENCY: 58.67 cycles
cpu0->cpu0_ITLB TOTAL        ACCESS:    3331511 HIT:    3331511 MISS:          0 MSHR_MERGE:          0
cpu0->cpu0_ITLB LOAD         ACCESS:    3331511 HIT:    3331511 MISS:          0 MSHR_MERGE:          0
cpu0->cpu0_ITLB RFO          ACCESS:          0 HIT:          0 MISS:          0 MSHR_MERGE:          0
cpu0->cpu0_ITLB PREFETCH     ACCESS:          0 HIT:          0 MISS:          0 MSHR_MERGE:          0
cpu0->cpu0_ITLB WRITE        ACCESS:          0 HIT:          0 MISS:          0 MSHR_MERGE:          0
cpu0->cpu0_ITLB TRANSLATION  ACCESS:          0 HIT:          0 MISS:          0 MSHR_MERGE:          0
cpu0->cpu0_ITLB PREFETCH REQUESTED:          0 ISSUED:          0 USEFUL:          0 USELESS:          0
cpu0->cpu0_ITLB AVERAGE MISS LATENCY: - cycles
cpu0->cpu0_DTLB TOTAL        ACCESS:   24838853 HIT:   24676275 MISS:     162578 MSHR_MERGE:      54603
cpu0->cpu0_DTLB LOAD         ACCESS:   24838853 HIT:   24676275 MISS:     162578 MSHR_MERGE:      54603
cpu0->cpu0_DTLB RFO          ACCESS:          0 HIT:          0 MISS:          0 MSHR_MERGE:          0
cpu0->cpu0_DTLB PREFETCH     ACCESS:          0 HIT:          0 MISS:          0 MSHR_MERGE:          0
cpu0->cpu0_DTLB WRITE        ACCESS:          0 HIT:          0 MISS:          0 MSHR_MERGE:          0
cpu0->cpu0_DTLB TRANSLATION  ACCESS:          0 HIT:          0 MISS:          0 MSHR_MERGE:          0
cpu0->cpu0_DTLB PREFETCH REQUESTED:          0 ISSUED:          0 USEFUL:          0 USELESS:          0
cpu0->cpu0_DTLB AVERAGE MISS LATENCY: 185.9 cycles
cpu0->LLC TOTAL        ACCESS:    2626134 HIT:     442036 MISS:    2184098 MSHR_MERGE:        145
cpu0->LLC LOAD         ACCESS:     818790 HIT:     128376 MISS:     690414 MSHR_MERGE:         43
cpu0->LLC RFO          ACCESS:      76641 HIT:       2044 MISS:      74597 MSHR_MERGE:          0
cpu0->LLC PREFETCH     ACCESS:    1310018 HIT:       3952 MISS:    1306066 MSHR_MERGE:        102
cpu0->LLC WRITE        ACCESS:     309390 HIT:     307395 MISS:       1995 MSHR_MERGE:          0
cpu0->LLC TRANSLATION  ACCESS:     111295 HIT:        269 MISS:     111026 MSHR_MERGE:          0
cpu0->LLC PREFETCH REQUESTED:          0 ISSUED:          0 USEFUL:          0 USELESS:          0
cpu0->LLC AVERAGE MISS LATENCY: 99.24 cycles

DRAM Statistics

Channel 0 RQ ROW_BUFFER_HIT:     142467
  ROW_BUFFER_MISS:    2039463
  AVG DBUS CONGESTED CYCLE: 5.008
Channel 0 WQ ROW_BUFFER_HIT:      61399
  ROW_BUFFER_MISS:     243901
  FULL:          0
Channel 0 REFRESHES ISSUED:      18427

==== TLB→Cache/MEM Breakdown (ROI totals across all caches) ====

DTLB
  (case)                                L1I          L1D          L2C          LLC          MEM
  STLB hit → final level                  0         1048         6096         3533        11063
---------------------------------------------------------------
  STLB miss resolved @ L1D                0            8            7           37       147514
  STLB miss resolved @ L2C                0            4           16           13         5392
  STLB miss resolved @ LLC                0            0           22           86          436
  STLB miss resolved @ MEM                0           49          115          135       109781

ITLB
  (case)                                L1I          L1D          L2C          LLC          MEM
  STLB hit → final level                  0            0            0            0            0
---------------------------------------------------------------
  STLB miss resolved @ L1D                0            0            0            0            0
  STLB miss resolved @ L2C                0            0            0            0            0
  STLB miss resolved @ LLC                0            0            0            0            0
  STLB miss resolved @ MEM                0            0            0            0            0
[2025-09-17 15:31:58] END   suite=gap trace=bfs-14 (rc=0)
