[2025-09-18 03:28:44] START suite=qualcomm_srv trace=srv0_ap
CMD: ./bin/champsim -w 20000000 -i 100000000 /home/ho/itp_asplos25_AE/traces/qualcomm_srv/srv0_ap.champsimtrace.xz
[VMEM] WARNING: physical memory size is smaller than virtual memory size.

*** ChampSim Multicore Out-of-Order Simulator ***
Warmup Instructions: 20000000
Simulation Instructions: 100000000
Number of CPUs: 1
Page size: 4096

Off-chip DRAM Size: 16 GiB Channels: 1 Width: 64-bit Data Rate: 3205 MT/s
[BTB] WARNING: target of return is a lower address than the corresponding call. This is usually a problem with your trace.
[BTB] WARNING: target of return is a lower address than the corresponding call. This is usually a problem with your trace.
[BTB] WARNING: target of return is a lower address than the corresponding call. This is usually a problem with your trace.
[BTB] WARNING: target of return is a lower address than the corresponding call. This is usually a problem with your trace.
[BTB] WARNING: target of return is a lower address than the corresponding call. This is usually a problem with your trace.
[BTB] WARNING: target of return is a lower address than the corresponding call. This is usually a problem with your trace.
[BTB] WARNING: target of return is a lower address than the corresponding call. This is usually a problem with your trace.
[BTB] WARNING: target of return is a lower address than the corresponding call. This is usually a problem with your trace.
[BTB] WARNING: target of return is a lower address than the corresponding call. This is usually a problem with your trace.
[BTB] WARNING: target of return is a lower address than the corresponding call. This is usually a problem with your trace.
Heartbeat CPU 0 instructions: 10000004 cycles: 2609954 heartbeat IPC: 3.831 cumulative IPC: 3.831 (Simulation time: 00 hr 00 min 36 sec)
Warmup finished CPU 0 instructions: 20000002 cycles: 5067649 cumulative IPC: 3.947 (Simulation time: 00 hr 01 min 13 sec)
Warmup complete CPU 0 instructions: 20000002 cycles: 5067649 cumulative IPC: 3.947 (Simulation time: 00 hr 01 min 13 sec)
Heartbeat CPU 0 instructions: 20000007 cycles: 5067650 heartbeat IPC: 4.069 cumulative IPC: 5 (Simulation time: 00 hr 01 min 13 sec)
Heartbeat CPU 0 instructions: 30000009 cycles: 13535296 heartbeat IPC: 1.181 cumulative IPC: 1.181 (Simulation time: 00 hr 02 min 18 sec)
Heartbeat CPU 0 instructions: 40000013 cycles: 21959585 heartbeat IPC: 1.187 cumulative IPC: 1.184 (Simulation time: 00 hr 03 min 29 sec)
Heartbeat CPU 0 instructions: 50000013 cycles: 30490937 heartbeat IPC: 1.172 cumulative IPC: 1.18 (Simulation time: 00 hr 04 min 37 sec)
Heartbeat CPU 0 instructions: 60000013 cycles: 38993060 heartbeat IPC: 1.176 cumulative IPC: 1.179 (Simulation time: 00 hr 05 min 41 sec)
Heartbeat CPU 0 instructions: 70000015 cycles: 47693571 heartbeat IPC: 1.149 cumulative IPC: 1.173 (Simulation time: 00 hr 06 min 50 sec)
*** Reached end of trace: (0, "/home/ho/itp_asplos25_AE/traces/qualcomm_srv/srv0_ap.champsimtrace.xz")
Heartbeat CPU 0 instructions: 80000019 cycles: 56164671 heartbeat IPC: 1.18 cumulative IPC: 1.174 (Simulation time: 00 hr 07 min 58 sec)
Heartbeat CPU 0 instructions: 90000022 cycles: 64545249 heartbeat IPC: 1.193 cumulative IPC: 1.177 (Simulation time: 00 hr 09 min 07 sec)
Heartbeat CPU 0 instructions: 100000024 cycles: 73013449 heartbeat IPC: 1.181 cumulative IPC: 1.177 (Simulation time: 00 hr 10 min 13 sec)
Heartbeat CPU 0 instructions: 110000028 cycles: 81541388 heartbeat IPC: 1.173 cumulative IPC: 1.177 (Simulation time: 00 hr 11 min 22 sec)
Simulation finished CPU 0 instructions: 100000003 cycles: 84930867 cumulative IPC: 1.177 (Simulation time: 00 hr 12 min 23 sec)
Simulation complete CPU 0 instructions: 100000003 cycles: 84930867 cumulative IPC: 1.177 (Simulation time: 00 hr 12 min 23 sec)

ChampSim completed all CPUs

=== Simulation ===
CPU 0 runs /home/ho/itp_asplos25_AE/traces/qualcomm_srv/srv0_ap.champsimtrace.xz

Region of Interest Statistics

CPU 0 cumulative IPC: 1.177 instructions: 100000003 cycles: 84930867
CPU 0 Branch Prediction Accuracy: 91.54% MPKI: 14.94 Average ROB Occupancy at Mispredict: 27.62
Branch type MPKI
BRANCH_DIRECT_JUMP: 0.286
BRANCH_INDIRECT: 0.4158
BRANCH_CONDITIONAL: 12.54
BRANCH_DIRECT_CALL: 0.7248
BRANCH_INDIRECT_CALL: 0.5131
BRANCH_RETURN: 0.4652


====Backend Stall Breakdown====
ROB_STALL: 128621
LQ_STALL: 0
SQ_STALL: 618007


====ROB Stall Breakdown====

== Average ==
ADDR_TRANS: 118.37143
REPLAY_LOAD: 56.44355
NON_REPLAY_LOAD: 12.242741

== Total ==
ADDR_TRANS: 12429
REPLAY_LOAD: 6999
NON_REPLAY_LOAD: 109193

== Counts ==
ADDR_TRANS: 105
REPLAY_LOAD: 124
NON_REPLAY_LOAD: 8919

cpu0->cpu0_STLB TOTAL        ACCESS:    1764100 HIT:    1757901 MISS:       6199 MSHR_MERGE:          0
cpu0->cpu0_STLB LOAD         ACCESS:    1764100 HIT:    1757901 MISS:       6199 MSHR_MERGE:          0
cpu0->cpu0_STLB RFO          ACCESS:          0 HIT:          0 MISS:          0 MSHR_MERGE:          0
cpu0->cpu0_STLB PREFETCH     ACCESS:          0 HIT:          0 MISS:          0 MSHR_MERGE:          0
cpu0->cpu0_STLB WRITE        ACCESS:          0 HIT:          0 MISS:          0 MSHR_MERGE:          0
cpu0->cpu0_STLB TRANSLATION  ACCESS:          0 HIT:          0 MISS:          0 MSHR_MERGE:          0
cpu0->cpu0_STLB PREFETCH REQUESTED:          0 ISSUED:          0 USEFUL:          0 USELESS:          0
cpu0->cpu0_STLB AVERAGE MISS LATENCY: 190.1 cycles
cpu0->cpu0_L2C TOTAL        ACCESS:    8035386 HIT:    6970846 MISS:    1064540 MSHR_MERGE:      81419
cpu0->cpu0_L2C LOAD         ACCESS:    6234585 HIT:    5443364 MISS:     791221 MSHR_MERGE:      13323
cpu0->cpu0_L2C RFO          ACCESS:     543613 HIT:     409719 MISS:     133894 MSHR_MERGE:          0
cpu0->cpu0_L2C PREFETCH     ACCESS:     318378 HIT:     194375 MISS:     124003 MSHR_MERGE:      68096
cpu0->cpu0_L2C WRITE        ACCESS:     927648 HIT:     921894 MISS:       5754 MSHR_MERGE:          0
cpu0->cpu0_L2C TRANSLATION  ACCESS:      11162 HIT:       1494 MISS:       9668 MSHR_MERGE:          0
cpu0->cpu0_L2C PREFETCH REQUESTED:     365382 ISSUED:     199248 USEFUL:      13095 USELESS:      11715
cpu0->cpu0_L2C AVERAGE MISS LATENCY: 38.92 cycles
cpu0->cpu0_L1I TOTAL        ACCESS:   14470419 HIT:    8074893 MISS:    6395526 MSHR_MERGE:    1547324
cpu0->cpu0_L1I LOAD         ACCESS:   14470419 HIT:    8074893 MISS:    6395526 MSHR_MERGE:    1547324
cpu0->cpu0_L1I RFO          ACCESS:          0 HIT:          0 MISS:          0 MSHR_MERGE:          0
cpu0->cpu0_L1I PREFETCH     ACCESS:          0 HIT:          0 MISS:          0 MSHR_MERGE:          0
cpu0->cpu0_L1I WRITE        ACCESS:          0 HIT:          0 MISS:          0 MSHR_MERGE:          0
cpu0->cpu0_L1I TRANSLATION  ACCESS:          0 HIT:          0 MISS:          0 MSHR_MERGE:          0
cpu0->cpu0_L1I PREFETCH REQUESTED:          0 ISSUED:          0 USEFUL:          0 USELESS:          0
cpu0->cpu0_L1I AVERAGE MISS LATENCY: 14.62 cycles
cpu0->cpu0_L1D TOTAL        ACCESS:   30497892 HIT:   26936520 MISS:    3561372 MSHR_MERGE:    1470975
cpu0->cpu0_L1D LOAD         ACCESS:   16880967 HIT:   15139944 MISS:    1741023 MSHR_MERGE:     354624
cpu0->cpu0_L1D RFO          ACCESS:          0 HIT:          0 MISS:          0 MSHR_MERGE:          0
cpu0->cpu0_L1D PREFETCH     ACCESS:     572205 HIT:     339875 MISS:     232330 MSHR_MERGE:      83126
cpu0->cpu0_L1D WRITE        ACCESS:   13031955 HIT:   11455114 MISS:    1576841 MSHR_MERGE:    1033209
cpu0->cpu0_L1D TRANSLATION  ACCESS:      12765 HIT:       1587 MISS:      11178 MSHR_MERGE:         16
cpu0->cpu0_L1D PREFETCH REQUESTED:     818002 ISSUED:     572205 USEFUL:      31462 USELESS:      45112
cpu0->cpu0_L1D AVERAGE MISS LATENCY: 22.66 cycles
cpu0->cpu0_ITLB TOTAL        ACCESS:   12090884 HIT:   10354960 MISS:    1735924 MSHR_MERGE:     877124
cpu0->cpu0_ITLB LOAD         ACCESS:   12090884 HIT:   10354960 MISS:    1735924 MSHR_MERGE:     877124
cpu0->cpu0_ITLB RFO          ACCESS:          0 HIT:          0 MISS:          0 MSHR_MERGE:          0
cpu0->cpu0_ITLB PREFETCH     ACCESS:          0 HIT:          0 MISS:          0 MSHR_MERGE:          0
cpu0->cpu0_ITLB WRITE        ACCESS:          0 HIT:          0 MISS:          0 MSHR_MERGE:          0
cpu0->cpu0_ITLB TRANSLATION  ACCESS:          0 HIT:          0 MISS:          0 MSHR_MERGE:          0
cpu0->cpu0_ITLB PREFETCH REQUESTED:          0 ISSUED:          0 USEFUL:          0 USELESS:          0
cpu0->cpu0_ITLB AVERAGE MISS LATENCY: 5.154 cycles
cpu0->cpu0_DTLB TOTAL        ACCESS:   28307059 HIT:   27103372 MISS:    1203687 MSHR_MERGE:     298387
cpu0->cpu0_DTLB LOAD         ACCESS:   28307059 HIT:   27103372 MISS:    1203687 MSHR_MERGE:     298387
cpu0->cpu0_DTLB RFO          ACCESS:          0 HIT:          0 MISS:          0 MSHR_MERGE:          0
cpu0->cpu0_DTLB PREFETCH     ACCESS:          0 HIT:          0 MISS:          0 MSHR_MERGE:          0
cpu0->cpu0_DTLB WRITE        ACCESS:          0 HIT:          0 MISS:          0 MSHR_MERGE:          0
cpu0->cpu0_DTLB TRANSLATION  ACCESS:          0 HIT:          0 MISS:          0 MSHR_MERGE:          0
cpu0->cpu0_DTLB PREFETCH REQUESTED:          0 ISSUED:          0 USEFUL:          0 USELESS:          0
cpu0->cpu0_DTLB AVERAGE MISS LATENCY: 6.163 cycles
cpu0->LLC TOTAL        ACCESS:    1173604 HIT:    1092162 MISS:      81442 MSHR_MERGE:       2014
cpu0->LLC LOAD         ACCESS:     777898 HIT:     753566 MISS:      24332 MSHR_MERGE:        260
cpu0->LLC RFO          ACCESS:     133894 HIT:      94899 MISS:      38995 MSHR_MERGE:          0
cpu0->LLC PREFETCH     ACCESS:      55907 HIT:      42644 MISS:      13263 MSHR_MERGE:       1754
cpu0->LLC WRITE        ACCESS:     196237 HIT:     195824 MISS:        413 MSHR_MERGE:          0
cpu0->LLC TRANSLATION  ACCESS:       9668 HIT:       5229 MISS:       4439 MSHR_MERGE:          0
cpu0->LLC PREFETCH REQUESTED:          0 ISSUED:          0 USEFUL:          0 USELESS:          0
cpu0->LLC AVERAGE MISS LATENCY: 126 cycles

DRAM Statistics

Channel 0 RQ ROW_BUFFER_HIT:       3980
  ROW_BUFFER_MISS:      75030
  AVG DBUS CONGESTED CYCLE: 3.599
Channel 0 WQ ROW_BUFFER_HIT:       1878
  ROW_BUFFER_MISS:      36368
  FULL:          0
Channel 0 REFRESHES ISSUED:       7077

==== TLB→Cache/MEM Breakdown (ROI totals across all caches) ====

DTLB
  (case)                                L1I          L1D          L2C          LLC          MEM
  STLB hit → final level                  0       526643       410527        75901         4821
---------------------------------------------------------------
  STLB miss resolved @ L1D                0            3          456          383          233
  STLB miss resolved @ L2C                0          402          567          534          178
  STLB miss resolved @ LLC                0          242          690         2781          849
  STLB miss resolved @ MEM                0            5          270         2144         2319

ITLB
  (case)                                L1I          L1D          L2C          LLC          MEM
  STLB hit → final level             156500        51427      1150858       112953          637
---------------------------------------------------------------
  STLB miss resolved @ L1D                0            0          131          350           46
  STLB miss resolved @ L2C                0          115          153          247            5
  STLB miss resolved @ LLC                0          264          294          788           80
  STLB miss resolved @ MEM                0            1           74          333          180
[2025-09-18 03:41:07] END   suite=qualcomm_srv trace=srv0_ap (rc=0)
