[2025-09-18 09:01:11] START suite=qualcomm_srv trace=srv234_ap
CMD: ./bin/champsim -w 20000000 -i 100000000 /home/ho/itp_asplos25_AE/traces/qualcomm_srv/srv234_ap.champsimtrace.xz
[VMEM] WARNING: physical memory size is smaller than virtual memory size.

*** ChampSim Multicore Out-of-Order Simulator ***
Warmup Instructions: 20000000
Simulation Instructions: 100000000
Number of CPUs: 1
Page size: 4096

Off-chip DRAM Size: 16 GiB Channels: 1 Width: 64-bit Data Rate: 3205 MT/s
Heartbeat CPU 0 instructions: 10000004 cycles: 2806763 heartbeat IPC: 3.563 cumulative IPC: 3.563 (Simulation time: 00 hr 00 min 40 sec)
[BTB] WARNING: target of return is a lower address than the corresponding call. This is usually a problem with your trace.
Warmup finished CPU 0 instructions: 20000000 cycles: 5387539 cumulative IPC: 3.712 (Simulation time: 00 hr 01 min 16 sec)
Warmup complete CPU 0 instructions: 20000000 cycles: 5387539 cumulative IPC: 3.712 (Simulation time: 00 hr 01 min 16 sec)
Heartbeat CPU 0 instructions: 20000005 cycles: 5387540 heartbeat IPC: 3.875 cumulative IPC: 5 (Simulation time: 00 hr 01 min 16 sec)
Heartbeat CPU 0 instructions: 30000009 cycles: 13482199 heartbeat IPC: 1.235 cumulative IPC: 1.235 (Simulation time: 00 hr 02 min 27 sec)
Heartbeat CPU 0 instructions: 40000012 cycles: 21749828 heartbeat IPC: 1.21 cumulative IPC: 1.222 (Simulation time: 00 hr 03 min 39 sec)
[BTB] WARNING: target of return is a lower address than the corresponding call. This is usually a problem with your trace.
[BTB] WARNING: target of return is a lower address than the corresponding call. This is usually a problem with your trace.
[BTB] WARNING: target of return is a lower address than the corresponding call. This is usually a problem with your trace.
[BTB] WARNING: target of return is a lower address than the corresponding call. This is usually a problem with your trace.
Heartbeat CPU 0 instructions: 50000012 cycles: 30018989 heartbeat IPC: 1.209 cumulative IPC: 1.218 (Simulation time: 00 hr 04 min 50 sec)
Heartbeat CPU 0 instructions: 60000012 cycles: 38032923 heartbeat IPC: 1.248 cumulative IPC: 1.225 (Simulation time: 00 hr 05 min 56 sec)
Heartbeat CPU 0 instructions: 70000013 cycles: 46231435 heartbeat IPC: 1.22 cumulative IPC: 1.224 (Simulation time: 00 hr 07 min 07 sec)
[BTB] WARNING: target of return is a lower address than the corresponding call. This is usually a problem with your trace.
[BTB] WARNING: target of return is a lower address than the corresponding call. This is usually a problem with your trace.
[BTB] WARNING: target of return is a lower address than the corresponding call. This is usually a problem with your trace.
[BTB] WARNING: target of return is a lower address than the corresponding call. This is usually a problem with your trace.
[BTB] WARNING: target of return is a lower address than the corresponding call. This is usually a problem with your trace.
Heartbeat CPU 0 instructions: 80000016 cycles: 54136568 heartbeat IPC: 1.265 cumulative IPC: 1.231 (Simulation time: 00 hr 08 min 17 sec)
Heartbeat CPU 0 instructions: 90000016 cycles: 62287314 heartbeat IPC: 1.227 cumulative IPC: 1.23 (Simulation time: 00 hr 09 min 28 sec)
Heartbeat CPU 0 instructions: 100000016 cycles: 70267762 heartbeat IPC: 1.253 cumulative IPC: 1.233 (Simulation time: 00 hr 10 min 37 sec)
*** Reached end of trace: (0, "/home/ho/itp_asplos25_AE/traces/qualcomm_srv/srv234_ap.champsimtrace.xz")
Heartbeat CPU 0 instructions: 110000019 cycles: 78279011 heartbeat IPC: 1.248 cumulative IPC: 1.235 (Simulation time: 00 hr 11 min 46 sec)
Simulation finished CPU 0 instructions: 100000000 cycles: 80783149 cumulative IPC: 1.238 (Simulation time: 00 hr 12 min 52 sec)
Simulation complete CPU 0 instructions: 100000000 cycles: 80783149 cumulative IPC: 1.238 (Simulation time: 00 hr 12 min 52 sec)

ChampSim completed all CPUs

=== Simulation ===
CPU 0 runs /home/ho/itp_asplos25_AE/traces/qualcomm_srv/srv234_ap.champsimtrace.xz

Region of Interest Statistics

CPU 0 cumulative IPC: 1.238 instructions: 100000000 cycles: 80783149
CPU 0 Branch Prediction Accuracy: 93.71% MPKI: 11.71 Average ROB Occupancy at Mispredict: 37.04
Branch type MPKI
BRANCH_DIRECT_JUMP: 0.00036
BRANCH_INDIRECT: 0.4237
BRANCH_CONDITIONAL: 11.06
BRANCH_DIRECT_CALL: 0.0005
BRANCH_INDIRECT_CALL: 0.2295
BRANCH_RETURN: 0.00142


====Backend Stall Breakdown====
ROB_STALL: 2287711
LQ_STALL: 0
SQ_STALL: 79763


====ROB Stall Breakdown====

== Average ==
ADDR_TRANS: 233.45488
REPLAY_LOAD: 149.54555
NON_REPLAY_LOAD: 55.962425

== Total ==
ADDR_TRANS: 256100
REPLAY_LOAD: 307017
NON_REPLAY_LOAD: 1724594

== Counts ==
ADDR_TRANS: 1097
REPLAY_LOAD: 2053
NON_REPLAY_LOAD: 30817

cpu0->cpu0_STLB TOTAL        ACCESS:    1802382 HIT:    1787540 MISS:      14842 MSHR_MERGE:          0
cpu0->cpu0_STLB LOAD         ACCESS:    1802382 HIT:    1787540 MISS:      14842 MSHR_MERGE:          0
cpu0->cpu0_STLB RFO          ACCESS:          0 HIT:          0 MISS:          0 MSHR_MERGE:          0
cpu0->cpu0_STLB PREFETCH     ACCESS:          0 HIT:          0 MISS:          0 MSHR_MERGE:          0
cpu0->cpu0_STLB WRITE        ACCESS:          0 HIT:          0 MISS:          0 MSHR_MERGE:          0
cpu0->cpu0_STLB TRANSLATION  ACCESS:          0 HIT:          0 MISS:          0 MSHR_MERGE:          0
cpu0->cpu0_STLB PREFETCH REQUESTED:          0 ISSUED:          0 USEFUL:          0 USELESS:          0
cpu0->cpu0_STLB AVERAGE MISS LATENCY: 299.2 cycles
cpu0->cpu0_L2C TOTAL        ACCESS:    8215234 HIT:    7790722 MISS:     424512 MSHR_MERGE:       4654
cpu0->cpu0_L2C LOAD         ACCESS:    7440032 HIT:    7122088 MISS:     317944 MSHR_MERGE:        101
cpu0->cpu0_L2C RFO          ACCESS:     196232 HIT:     148711 MISS:      47521 MSHR_MERGE:         12
cpu0->cpu0_L2C PREFETCH     ACCESS:      77597 HIT:      45937 MISS:      31660 MSHR_MERGE:       4541
cpu0->cpu0_L2C WRITE        ACCESS:     474535 HIT:     471129 MISS:       3406 MSHR_MERGE:          0
cpu0->cpu0_L2C TRANSLATION  ACCESS:      26838 HIT:       2857 MISS:      23981 MSHR_MERGE:          0
cpu0->cpu0_L2C PREFETCH REQUESTED:      54071 ISSUED:      54071 USEFUL:      18326 USELESS:       2505
cpu0->cpu0_L2C AVERAGE MISS LATENCY: 105.4 cycles
cpu0->cpu0_L1I TOTAL        ACCESS:   15657058 HIT:    7026380 MISS:    8630678 MSHR_MERGE:    2240893
cpu0->cpu0_L1I LOAD         ACCESS:   15657058 HIT:    7026380 MISS:    8630678 MSHR_MERGE:    2240893
cpu0->cpu0_L1I RFO          ACCESS:          0 HIT:          0 MISS:          0 MSHR_MERGE:          0
cpu0->cpu0_L1I PREFETCH     ACCESS:          0 HIT:          0 MISS:          0 MSHR_MERGE:          0
cpu0->cpu0_L1I WRITE        ACCESS:          0 HIT:          0 MISS:          0 MSHR_MERGE:          0
cpu0->cpu0_L1I TRANSLATION  ACCESS:          0 HIT:          0 MISS:          0 MSHR_MERGE:          0
cpu0->cpu0_L1I PREFETCH REQUESTED:          0 ISSUED:          0 USEFUL:          0 USELESS:          0
cpu0->cpu0_L1I AVERAGE MISS LATENCY: 11.67 cycles
cpu0->cpu0_L1D TOTAL        ACCESS:   27450061 HIT:   25489305 MISS:    1960756 MSHR_MERGE:     663887
cpu0->cpu0_L1D LOAD         ACCESS:   14990749 HIT:   13550416 MISS:    1440333 MSHR_MERGE:     390085
cpu0->cpu0_L1D RFO          ACCESS:          0 HIT:          0 MISS:          0 MSHR_MERGE:          0
cpu0->cpu0_L1D PREFETCH     ACCESS:      61910 HIT:      34751 MISS:      27159 MSHR_MERGE:       3622
cpu0->cpu0_L1D WRITE        ACCESS:   12367026 HIT:   11901147 MISS:     465879 MSHR_MERGE:     269633
cpu0->cpu0_L1D TRANSLATION  ACCESS:      30376 HIT:       2991 MISS:      27385 MSHR_MERGE:        547
cpu0->cpu0_L1D PREFETCH REQUESTED:      64476 ISSUED:      61910 USEFUL:      12393 USELESS:       8216
cpu0->cpu0_L1D AVERAGE MISS LATENCY: 42.37 cycles
cpu0->cpu0_ITLB TOTAL        ACCESS:   13037581 HIT:   11045579 MISS:    1992002 MSHR_MERGE:    1035638
cpu0->cpu0_ITLB LOAD         ACCESS:   13037581 HIT:   11045579 MISS:    1992002 MSHR_MERGE:    1035638
cpu0->cpu0_ITLB RFO          ACCESS:          0 HIT:          0 MISS:          0 MSHR_MERGE:          0
cpu0->cpu0_ITLB PREFETCH     ACCESS:          0 HIT:          0 MISS:          0 MSHR_MERGE:          0
cpu0->cpu0_ITLB WRITE        ACCESS:          0 HIT:          0 MISS:          0 MSHR_MERGE:          0
cpu0->cpu0_ITLB TRANSLATION  ACCESS:          0 HIT:          0 MISS:          0 MSHR_MERGE:          0
cpu0->cpu0_ITLB PREFETCH REQUESTED:          0 ISSUED:          0 USEFUL:          0 USELESS:          0
cpu0->cpu0_ITLB AVERAGE MISS LATENCY: 5.193 cycles
cpu0->cpu0_DTLB TOTAL        ACCESS:   25813858 HIT:   24609982 MISS:    1203876 MSHR_MERGE:     357858
cpu0->cpu0_DTLB LOAD         ACCESS:   25813858 HIT:   24609982 MISS:    1203876 MSHR_MERGE:     357858
cpu0->cpu0_DTLB RFO          ACCESS:          0 HIT:          0 MISS:          0 MSHR_MERGE:          0
cpu0->cpu0_DTLB PREFETCH     ACCESS:          0 HIT:          0 MISS:          0 MSHR_MERGE:          0
cpu0->cpu0_DTLB WRITE        ACCESS:          0 HIT:          0 MISS:          0 MSHR_MERGE:          0
cpu0->cpu0_DTLB TRANSLATION  ACCESS:          0 HIT:          0 MISS:          0 MSHR_MERGE:          0
cpu0->cpu0_DTLB PREFETCH REQUESTED:          0 ISSUED:          0 USEFUL:          0 USELESS:          0
cpu0->cpu0_DTLB AVERAGE MISS LATENCY: 10 cycles
cpu0->LLC TOTAL        ACCESS:     599573 HIT:     277158 MISS:     322415 MSHR_MERGE:         19
cpu0->LLC LOAD         ACCESS:     317843 HIT:      73896 MISS:     243947 MSHR_MERGE:          0
cpu0->LLC RFO          ACCESS:      47509 HIT:      16581 MISS:      30928 MSHR_MERGE:          0
cpu0->LLC PREFETCH     ACCESS:      27119 HIT:       2088 MISS:      25031 MSHR_MERGE:         19
cpu0->LLC WRITE        ACCESS:     183121 HIT:     181836 MISS:       1285 MSHR_MERGE:          0
cpu0->LLC TRANSLATION  ACCESS:      23981 HIT:       2757 MISS:      21224 MSHR_MERGE:          0
cpu0->LLC PREFETCH REQUESTED:          0 ISSUED:          0 USEFUL:          0 USELESS:          0
cpu0->LLC AVERAGE MISS LATENCY: 103.3 cycles

DRAM Statistics

Channel 0 RQ ROW_BUFFER_HIT:       5197
  ROW_BUFFER_MISS:     315889
  AVG DBUS CONGESTED CYCLE: 6.284
Channel 0 WQ ROW_BUFFER_HIT:      30365
  ROW_BUFFER_MISS:     119714
  FULL:          0
Channel 0 REFRESHES ISSUED:       6732

==== TLB→Cache/MEM Breakdown (ROI totals across all caches) ====

DTLB
  (case)                                L1I          L1D          L2C          LLC          MEM
  STLB hit → final level                  0       641979       312680        13773        53432
---------------------------------------------------------------
  STLB miss resolved @ L1D                0            2           11          598         4356
  STLB miss resolved @ L2C                0            1           11          355         4229
  STLB miss resolved @ LLC                0           13           13          819         1806
  STLB miss resolved @ MEM                0           13           42         1770        17332

ITLB
  (case)                                L1I          L1D          L2C          LLC          MEM
  STLB hit → final level             141746        48035      1468799        12665        12840
---------------------------------------------------------------
  STLB miss resolved @ L1D                2            3            6           64          579
  STLB miss resolved @ L2C                2            2            1           26         1292
  STLB miss resolved @ LLC                0            8            3           84          245
  STLB miss resolved @ MEM                3            3           35          136         2655
[2025-09-18 09:14:04] END   suite=qualcomm_srv trace=srv234_ap (rc=0)
