[2025-09-18 09:27:02] START suite=qualcomm_srv trace=srv342_ap
CMD: ./bin/champsim -w 20000000 -i 100000000 /home/ho/itp_asplos25_AE/traces/qualcomm_srv/srv342_ap.champsimtrace.xz
[VMEM] WARNING: physical memory size is smaller than virtual memory size.

*** ChampSim Multicore Out-of-Order Simulator ***
Warmup Instructions: 20000000
Simulation Instructions: 100000000
Number of CPUs: 1
Page size: 4096

Off-chip DRAM Size: 16 GiB Channels: 1 Width: 64-bit Data Rate: 3205 MT/s
[BTB] WARNING: target of return is a lower address than the corresponding call. This is usually a problem with your trace.
[BTB] WARNING: target of return is a lower address than the corresponding call. This is usually a problem with your trace.
[BTB] WARNING: target of return is a lower address than the corresponding call. This is usually a problem with your trace.
[BTB] WARNING: target of return is a lower address than the corresponding call. This is usually a problem with your trace.
[BTB] WARNING: target of return is a lower address than the corresponding call. This is usually a problem with your trace.
[BTB] WARNING: target of return is a lower address than the corresponding call. This is usually a problem with your trace.
[BTB] WARNING: target of return is a lower address than the corresponding call. This is usually a problem with your trace.
[BTB] WARNING: target of return is a lower address than the corresponding call. This is usually a problem with your trace.
[BTB] WARNING: target of return is a lower address than the corresponding call. This is usually a problem with your trace.
[BTB] WARNING: target of return is a lower address than the corresponding call. This is usually a problem with your trace.
Heartbeat CPU 0 instructions: 10000001 cycles: 2643300 heartbeat IPC: 3.783 cumulative IPC: 3.783 (Simulation time: 00 hr 00 min 38 sec)
Warmup finished CPU 0 instructions: 20000000 cycles: 5049976 cumulative IPC: 3.96 (Simulation time: 00 hr 01 min 14 sec)
Warmup complete CPU 0 instructions: 20000000 cycles: 5049976 cumulative IPC: 3.96 (Simulation time: 00 hr 01 min 14 sec)
Heartbeat CPU 0 instructions: 20000005 cycles: 5049977 heartbeat IPC: 4.155 cumulative IPC: 5 (Simulation time: 00 hr 01 min 14 sec)
Heartbeat CPU 0 instructions: 30000005 cycles: 13535658 heartbeat IPC: 1.178 cumulative IPC: 1.178 (Simulation time: 00 hr 02 min 26 sec)
Heartbeat CPU 0 instructions: 40000006 cycles: 21825382 heartbeat IPC: 1.206 cumulative IPC: 1.192 (Simulation time: 00 hr 03 min 27 sec)
Heartbeat CPU 0 instructions: 50000010 cycles: 30180255 heartbeat IPC: 1.197 cumulative IPC: 1.194 (Simulation time: 00 hr 04 min 34 sec)
Heartbeat CPU 0 instructions: 60000011 cycles: 38750474 heartbeat IPC: 1.167 cumulative IPC: 1.187 (Simulation time: 00 hr 05 min 44 sec)
Heartbeat CPU 0 instructions: 70000011 cycles: 47147932 heartbeat IPC: 1.191 cumulative IPC: 1.188 (Simulation time: 00 hr 06 min 53 sec)
Heartbeat CPU 0 instructions: 80000014 cycles: 55610770 heartbeat IPC: 1.182 cumulative IPC: 1.187 (Simulation time: 00 hr 08 min 00 sec)
Heartbeat CPU 0 instructions: 90000016 cycles: 64161937 heartbeat IPC: 1.169 cumulative IPC: 1.184 (Simulation time: 00 hr 09 min 02 sec)
Heartbeat CPU 0 instructions: 100000016 cycles: 72975235 heartbeat IPC: 1.135 cumulative IPC: 1.178 (Simulation time: 00 hr 10 min 16 sec)
*** Reached end of trace: (0, "/home/ho/itp_asplos25_AE/traces/qualcomm_srv/srv342_ap.champsimtrace.xz")
Heartbeat CPU 0 instructions: 110000016 cycles: 81475869 heartbeat IPC: 1.176 cumulative IPC: 1.178 (Simulation time: 00 hr 11 min 28 sec)
Simulation finished CPU 0 instructions: 100000002 cycles: 85047680 cumulative IPC: 1.176 (Simulation time: 00 hr 12 min 40 sec)
Simulation complete CPU 0 instructions: 100000002 cycles: 85047680 cumulative IPC: 1.176 (Simulation time: 00 hr 12 min 40 sec)

ChampSim completed all CPUs

=== Simulation ===
CPU 0 runs /home/ho/itp_asplos25_AE/traces/qualcomm_srv/srv342_ap.champsimtrace.xz

Region of Interest Statistics

CPU 0 cumulative IPC: 1.176 instructions: 100000002 cycles: 85047680
CPU 0 Branch Prediction Accuracy: 91.5% MPKI: 15 Average ROB Occupancy at Mispredict: 27.9
Branch type MPKI
BRANCH_DIRECT_JUMP: 0.2804
BRANCH_INDIRECT: 0.4192
BRANCH_CONDITIONAL: 12.59
BRANCH_DIRECT_CALL: 0.7219
BRANCH_INDIRECT_CALL: 0.5238
BRANCH_RETURN: 0.4685


====Backend Stall Breakdown====
ROB_STALL: 186808
LQ_STALL: 0
SQ_STALL: 586750


====ROB Stall Breakdown====

== Average ==
ADDR_TRANS: 115.13223
REPLAY_LOAD: 88.804054
NON_REPLAY_LOAD: 17.803612

== Total ==
ADDR_TRANS: 13931
REPLAY_LOAD: 13143
NON_REPLAY_LOAD: 159734

== Counts ==
ADDR_TRANS: 121
REPLAY_LOAD: 148
NON_REPLAY_LOAD: 8972

cpu0->cpu0_STLB TOTAL        ACCESS:    1784730 HIT:    1778396 MISS:       6334 MSHR_MERGE:          0
cpu0->cpu0_STLB LOAD         ACCESS:    1784730 HIT:    1778396 MISS:       6334 MSHR_MERGE:          0
cpu0->cpu0_STLB RFO          ACCESS:          0 HIT:          0 MISS:          0 MSHR_MERGE:          0
cpu0->cpu0_STLB PREFETCH     ACCESS:          0 HIT:          0 MISS:          0 MSHR_MERGE:          0
cpu0->cpu0_STLB WRITE        ACCESS:          0 HIT:          0 MISS:          0 MSHR_MERGE:          0
cpu0->cpu0_STLB TRANSLATION  ACCESS:          0 HIT:          0 MISS:          0 MSHR_MERGE:          0
cpu0->cpu0_STLB PREFETCH REQUESTED:          0 ISSUED:          0 USEFUL:          0 USELESS:          0
cpu0->cpu0_STLB AVERAGE MISS LATENCY: 199.7 cycles
cpu0->cpu0_L2C TOTAL        ACCESS:    8100107 HIT:    7072390 MISS:    1027717 MSHR_MERGE:      76090
cpu0->cpu0_L2C LOAD         ACCESS:    6279968 HIT:    5523498 MISS:     756470 MSHR_MERGE:      12114
cpu0->cpu0_L2C RFO          ACCESS:     545104 HIT:     412004 MISS:     133100 MSHR_MERGE:          0
cpu0->cpu0_L2C PREFETCH     ACCESS:     327911 HIT:     211610 MISS:     116301 MSHR_MERGE:      63976
cpu0->cpu0_L2C WRITE        ACCESS:     935646 HIT:     923235 MISS:      12411 MSHR_MERGE:          0
cpu0->cpu0_L2C TRANSLATION  ACCESS:      11478 HIT:       2043 MISS:       9435 MSHR_MERGE:          0
cpu0->cpu0_L2C PREFETCH REQUESTED:     367835 ISSUED:     198784 USEFUL:      12565 USELESS:      10010
cpu0->cpu0_L2C AVERAGE MISS LATENCY: 38.37 cycles
cpu0->cpu0_L1I TOTAL        ACCESS:   14440601 HIT:    8024510 MISS:    6416091 MSHR_MERGE:    1541377
cpu0->cpu0_L1I LOAD         ACCESS:   14440601 HIT:    8024510 MISS:    6416091 MSHR_MERGE:    1541377
cpu0->cpu0_L1I RFO          ACCESS:          0 HIT:          0 MISS:          0 MSHR_MERGE:          0
cpu0->cpu0_L1I PREFETCH     ACCESS:          0 HIT:          0 MISS:          0 MSHR_MERGE:          0
cpu0->cpu0_L1I WRITE        ACCESS:          0 HIT:          0 MISS:          0 MSHR_MERGE:          0
cpu0->cpu0_L1I TRANSLATION  ACCESS:          0 HIT:          0 MISS:          0 MSHR_MERGE:          0
cpu0->cpu0_L1I PREFETCH REQUESTED:          0 ISSUED:          0 USEFUL:          0 USELESS:          0
cpu0->cpu0_L1I AVERAGE MISS LATENCY: 14.44 cycles
cpu0->cpu0_L1D TOTAL        ACCESS:   30496444 HIT:   26868192 MISS:    3628252 MSHR_MERGE:    1508080
cpu0->cpu0_L1D LOAD         ACCESS:   16863712 HIT:   15092875 MISS:    1770837 MSHR_MERGE:     365572
cpu0->cpu0_L1D RFO          ACCESS:          0 HIT:          0 MISS:          0 MSHR_MERGE:          0
cpu0->cpu0_L1D PREFETCH     ACCESS:     587711 HIT:     337452 MISS:     250259 MSHR_MERGE:      91974
cpu0->cpu0_L1D WRITE        ACCESS:   13032001 HIT:   11436341 MISS:    1595660 MSHR_MERGE:    1050516
cpu0->cpu0_L1D TRANSLATION  ACCESS:      13020 HIT:       1524 MISS:      11496 MSHR_MERGE:         18
cpu0->cpu0_L1D PREFETCH REQUESTED:     830989 ISSUED:     587703 USEFUL:      39834 USELESS:      44669
cpu0->cpu0_L1D AVERAGE MISS LATENCY: 22.07 cycles
cpu0->cpu0_ITLB TOTAL        ACCESS:   12068725 HIT:   10321892 MISS:    1746833 MSHR_MERGE:     879831
cpu0->cpu0_ITLB LOAD         ACCESS:   12068725 HIT:   10321892 MISS:    1746833 MSHR_MERGE:     879831
cpu0->cpu0_ITLB RFO          ACCESS:          0 HIT:          0 MISS:          0 MSHR_MERGE:          0
cpu0->cpu0_ITLB PREFETCH     ACCESS:          0 HIT:          0 MISS:          0 MSHR_MERGE:          0
cpu0->cpu0_ITLB WRITE        ACCESS:          0 HIT:          0 MISS:          0 MSHR_MERGE:          0
cpu0->cpu0_ITLB TRANSLATION  ACCESS:          0 HIT:          0 MISS:          0 MSHR_MERGE:          0
cpu0->cpu0_ITLB PREFETCH REQUESTED:          0 ISSUED:          0 USEFUL:          0 USELESS:          0
cpu0->cpu0_ITLB AVERAGE MISS LATENCY: 5.167 cycles
cpu0->cpu0_DTLB TOTAL        ACCESS:   28307247 HIT:   27080868 MISS:    1226379 MSHR_MERGE:     308651
cpu0->cpu0_DTLB LOAD         ACCESS:   28307247 HIT:   27080868 MISS:    1226379 MSHR_MERGE:     308651
cpu0->cpu0_DTLB RFO          ACCESS:          0 HIT:          0 MISS:          0 MSHR_MERGE:          0
cpu0->cpu0_DTLB PREFETCH     ACCESS:          0 HIT:          0 MISS:          0 MSHR_MERGE:          0
cpu0->cpu0_DTLB WRITE        ACCESS:          0 HIT:          0 MISS:          0 MSHR_MERGE:          0
cpu0->cpu0_DTLB TRANSLATION  ACCESS:          0 HIT:          0 MISS:          0 MSHR_MERGE:          0
cpu0->cpu0_DTLB PREFETCH REQUESTED:          0 ISSUED:          0 USEFUL:          0 USELESS:          0
cpu0->cpu0_DTLB AVERAGE MISS LATENCY: 6.227 cycles
cpu0->LLC TOTAL        ACCESS:    1144278 HIT:    1062668 MISS:      81610 MSHR_MERGE:       2818
cpu0->LLC LOAD         ACCESS:     744356 HIT:     719266 MISS:      25090 MSHR_MERGE:        377
cpu0->LLC RFO          ACCESS:     133100 HIT:      96529 MISS:      36571 MSHR_MERGE:          0
cpu0->LLC PREFETCH     ACCESS:      52325 HIT:      37221 MISS:      15104 MSHR_MERGE:       2441
cpu0->LLC WRITE        ACCESS:     205062 HIT:     204734 MISS:        328 MSHR_MERGE:          0
cpu0->LLC TRANSLATION  ACCESS:       9435 HIT:       4918 MISS:       4517 MSHR_MERGE:          0
cpu0->LLC PREFETCH REQUESTED:          0 ISSUED:          0 USEFUL:          0 USELESS:          0
cpu0->LLC AVERAGE MISS LATENCY: 117.9 cycles

DRAM Statistics

Channel 0 RQ ROW_BUFFER_HIT:       4690
  ROW_BUFFER_MISS:      73769
  AVG DBUS CONGESTED CYCLE: 3.637
Channel 0 WQ ROW_BUFFER_HIT:       1689
  ROW_BUFFER_MISS:      34438
  FULL:          0
Channel 0 REFRESHES ISSUED:       7088

==== TLB→Cache/MEM Breakdown (ROI totals across all caches) ====

DTLB
  (case)                                L1I          L1D          L2C          LLC          MEM
  STLB hit → final level                  0       534644       423682        76358         4762
---------------------------------------------------------------
  STLB miss resolved @ L1D                0            3          187          675          233
  STLB miss resolved @ L2C                0          414          400         1245          179
  STLB miss resolved @ LLC                0          249          765         2557          908
  STLB miss resolved @ MEM                0            4          327         2066         2387

ITLB
  (case)                                L1I          L1D          L2C          LLC          MEM
  STLB hit → final level             157976        53813      1168151       107801          710
---------------------------------------------------------------
  STLB miss resolved @ L1D                0            0          299          166           66
  STLB miss resolved @ L2C                0          277          445          191            3
  STLB miss resolved @ LLC                0           44          369          582          103
  STLB miss resolved @ MEM                0            2           98          334          193
[2025-09-18 09:39:43] END   suite=qualcomm_srv trace=srv342_ap (rc=0)
