[2025-09-18 03:37:54] START suite=qualcomm_srv trace=srv317_ap
CMD: ./bin/champsim -w 20000000 -i 100000000 /home/ho/itp_asplos25_AE/traces/qualcomm_srv/srv317_ap.champsimtrace.xz
[VMEM] WARNING: physical memory size is smaller than virtual memory size.

*** ChampSim Multicore Out-of-Order Simulator ***
Warmup Instructions: 20000000
Simulation Instructions: 100000000
Number of CPUs: 1
Page size: 4096

Off-chip DRAM Size: 16 GiB Channels: 1 Width: 64-bit Data Rate: 3205 MT/s
[BTB] WARNING: target of return is a lower address than the corresponding call. This is usually a problem with your trace.
[BTB] WARNING: target of return is a lower address than the corresponding call. This is usually a problem with your trace.
[BTB] WARNING: target of return is a lower address than the corresponding call. This is usually a problem with your trace.
[BTB] WARNING: target of return is a lower address than the corresponding call. This is usually a problem with your trace.
[BTB] WARNING: target of return is a lower address than the corresponding call. This is usually a problem with your trace.
[BTB] WARNING: target of return is a lower address than the corresponding call. This is usually a problem with your trace.
[BTB] WARNING: target of return is a lower address than the corresponding call. This is usually a problem with your trace.
[BTB] WARNING: target of return is a lower address than the corresponding call. This is usually a problem with your trace.
[BTB] WARNING: target of return is a lower address than the corresponding call. This is usually a problem with your trace.
[BTB] WARNING: target of return is a lower address than the corresponding call. This is usually a problem with your trace.
Heartbeat CPU 0 instructions: 10000003 cycles: 2641523 heartbeat IPC: 3.786 cumulative IPC: 3.786 (Simulation time: 00 hr 00 min 37 sec)
Warmup finished CPU 0 instructions: 20000000 cycles: 5077121 cumulative IPC: 3.939 (Simulation time: 00 hr 01 min 13 sec)
Warmup complete CPU 0 instructions: 20000000 cycles: 5077121 cumulative IPC: 3.939 (Simulation time: 00 hr 01 min 13 sec)
Heartbeat CPU 0 instructions: 20000005 cycles: 5077122 heartbeat IPC: 4.106 cumulative IPC: 5 (Simulation time: 00 hr 01 min 13 sec)
Heartbeat CPU 0 instructions: 30000005 cycles: 14146490 heartbeat IPC: 1.103 cumulative IPC: 1.103 (Simulation time: 00 hr 02 min 18 sec)
Heartbeat CPU 0 instructions: 40000009 cycles: 23104401 heartbeat IPC: 1.116 cumulative IPC: 1.109 (Simulation time: 00 hr 03 min 22 sec)
Heartbeat CPU 0 instructions: 50000011 cycles: 31970365 heartbeat IPC: 1.128 cumulative IPC: 1.116 (Simulation time: 00 hr 04 min 29 sec)
Heartbeat CPU 0 instructions: 60000014 cycles: 40785513 heartbeat IPC: 1.134 cumulative IPC: 1.12 (Simulation time: 00 hr 05 min 36 sec)
Heartbeat CPU 0 instructions: 70000016 cycles: 49799129 heartbeat IPC: 1.109 cumulative IPC: 1.118 (Simulation time: 00 hr 06 min 45 sec)
Heartbeat CPU 0 instructions: 80000016 cycles: 58682732 heartbeat IPC: 1.126 cumulative IPC: 1.119 (Simulation time: 00 hr 07 min 57 sec)
*** Reached end of trace: (0, "/home/ho/itp_asplos25_AE/traces/qualcomm_srv/srv317_ap.champsimtrace.xz")
Heartbeat CPU 0 instructions: 90000020 cycles: 67683130 heartbeat IPC: 1.111 cumulative IPC: 1.118 (Simulation time: 00 hr 09 min 06 sec)
Heartbeat CPU 0 instructions: 100000023 cycles: 76695666 heartbeat IPC: 1.11 cumulative IPC: 1.117 (Simulation time: 00 hr 10 min 21 sec)
Heartbeat CPU 0 instructions: 110000025 cycles: 85602887 heartbeat IPC: 1.123 cumulative IPC: 1.118 (Simulation time: 00 hr 11 min 31 sec)
Simulation finished CPU 0 instructions: 100000002 cycles: 89637378 cumulative IPC: 1.116 (Simulation time: 00 hr 12 min 42 sec)
Simulation complete CPU 0 instructions: 100000002 cycles: 89637378 cumulative IPC: 1.116 (Simulation time: 00 hr 12 min 42 sec)

ChampSim completed all CPUs

=== Simulation ===
CPU 0 runs /home/ho/itp_asplos25_AE/traces/qualcomm_srv/srv317_ap.champsimtrace.xz

Region of Interest Statistics

CPU 0 cumulative IPC: 1.116 instructions: 100000002 cycles: 89637378
CPU 0 Branch Prediction Accuracy: 92.42% MPKI: 13.63 Average ROB Occupancy at Mispredict: 28.85
Branch type MPKI
BRANCH_DIRECT_JUMP: 0.1489
BRANCH_INDIRECT: 0.3602
BRANCH_CONDITIONAL: 11.64
BRANCH_DIRECT_CALL: 0.5208
BRANCH_INDIRECT_CALL: 0.5183
BRANCH_RETURN: 0.4411


====Backend Stall Breakdown====
ROB_STALL: 179056
LQ_STALL: 0
SQ_STALL: 407584


====ROB Stall Breakdown====

== Average ==
ADDR_TRANS: 129.70987
REPLAY_LOAD: 47.048485
NON_REPLAY_LOAD: 6.998478

== Total ==
ADDR_TRANS: 21013
REPLAY_LOAD: 15526
NON_REPLAY_LOAD: 142517

== Counts ==
ADDR_TRANS: 162
REPLAY_LOAD: 330
NON_REPLAY_LOAD: 20364

cpu0->cpu0_STLB TOTAL        ACCESS:    2042479 HIT:    2029365 MISS:      13114 MSHR_MERGE:          0
cpu0->cpu0_STLB LOAD         ACCESS:    2042479 HIT:    2029365 MISS:      13114 MSHR_MERGE:          0
cpu0->cpu0_STLB RFO          ACCESS:          0 HIT:          0 MISS:          0 MSHR_MERGE:          0
cpu0->cpu0_STLB PREFETCH     ACCESS:          0 HIT:          0 MISS:          0 MSHR_MERGE:          0
cpu0->cpu0_STLB WRITE        ACCESS:          0 HIT:          0 MISS:          0 MSHR_MERGE:          0
cpu0->cpu0_STLB TRANSLATION  ACCESS:          0 HIT:          0 MISS:          0 MSHR_MERGE:          0
cpu0->cpu0_STLB PREFETCH REQUESTED:          0 ISSUED:          0 USEFUL:          0 USELESS:          0
cpu0->cpu0_STLB AVERAGE MISS LATENCY: 100 cycles
cpu0->cpu0_L2C TOTAL        ACCESS:   10212785 HIT:    8586163 MISS:    1626622 MSHR_MERGE:     122812
cpu0->cpu0_L2C LOAD         ACCESS:    7872614 HIT:    6593670 MISS:    1278944 MSHR_MERGE:      30305
cpu0->cpu0_L2C RFO          ACCESS:     600467 HIT:     438416 MISS:     162051 MSHR_MERGE:          0
cpu0->cpu0_L2C PREFETCH     ACCESS:     560939 HIT:     400659 MISS:     160280 MSHR_MERGE:      92507
cpu0->cpu0_L2C WRITE        ACCESS:    1156770 HIT:    1143393 MISS:      13377 MSHR_MERGE:          0
cpu0->cpu0_L2C TRANSLATION  ACCESS:      21995 HIT:      10025 MISS:      11970 MSHR_MERGE:          0
cpu0->cpu0_L2C PREFETCH REQUESTED:     923107 ISSUED:     329855 USEFUL:       6593 USELESS:      10975
cpu0->cpu0_L2C AVERAGE MISS LATENCY: 32.24 cycles
cpu0->cpu0_L1I TOTAL        ACCESS:   15677904 HIT:    8174420 MISS:    7503484 MSHR_MERGE:    1823284
cpu0->cpu0_L1I LOAD         ACCESS:   15677904 HIT:    8174420 MISS:    7503484 MSHR_MERGE:    1823284
cpu0->cpu0_L1I RFO          ACCESS:          0 HIT:          0 MISS:          0 MSHR_MERGE:          0
cpu0->cpu0_L1I PREFETCH     ACCESS:          0 HIT:          0 MISS:          0 MSHR_MERGE:          0
cpu0->cpu0_L1I WRITE        ACCESS:          0 HIT:          0 MISS:          0 MSHR_MERGE:          0
cpu0->cpu0_L1I TRANSLATION  ACCESS:          0 HIT:          0 MISS:          0 MSHR_MERGE:          0
cpu0->cpu0_L1I PREFETCH REQUESTED:          0 ISSUED:          0 USEFUL:          0 USELESS:          0
cpu0->cpu0_L1I AVERAGE MISS LATENCY: 15.44 cycles
cpu0->cpu0_L1D TOTAL        ACCESS:   30389169 HIT:   25425746 MISS:    4963423 MSHR_MERGE:    1837668
cpu0->cpu0_L1D LOAD         ACCESS:   16576464 HIT:   13864346 MISS:    2712118 MSHR_MERGE:     519704
cpu0->cpu0_L1D RFO          ACCESS:          0 HIT:          0 MISS:          0 MSHR_MERGE:          0
cpu0->cpu0_L1D PREFETCH     ACCESS:     653202 HIT:     221841 MISS:     431361 MSHR_MERGE:     120482
cpu0->cpu0_L1D WRITE        ACCESS:   13132917 HIT:   11335117 MISS:    1797800 MSHR_MERGE:    1197333
cpu0->cpu0_L1D TRANSLATION  ACCESS:      26586 HIT:       4442 MISS:      22144 MSHR_MERGE:        149
cpu0->cpu0_L1D PREFETCH REQUESTED:     832215 ISSUED:     653202 USEFUL:      53642 USELESS:      42290
cpu0->cpu0_L1D AVERAGE MISS LATENCY: 20.63 cycles
cpu0->cpu0_ITLB TOTAL        ACCESS:   12795853 HIT:   10703698 MISS:    2092155 MSHR_MERGE:    1051952
cpu0->cpu0_ITLB LOAD         ACCESS:   12795853 HIT:   10703698 MISS:    2092155 MSHR_MERGE:    1051952
cpu0->cpu0_ITLB RFO          ACCESS:          0 HIT:          0 MISS:          0 MSHR_MERGE:          0
cpu0->cpu0_ITLB PREFETCH     ACCESS:          0 HIT:          0 MISS:          0 MSHR_MERGE:          0
cpu0->cpu0_ITLB WRITE        ACCESS:          0 HIT:          0 MISS:          0 MSHR_MERGE:          0
cpu0->cpu0_ITLB TRANSLATION  ACCESS:          0 HIT:          0 MISS:          0 MSHR_MERGE:          0
cpu0->cpu0_ITLB PREFETCH REQUESTED:          0 ISSUED:          0 USEFUL:          0 USELESS:          0
cpu0->cpu0_ITLB AVERAGE MISS LATENCY: 5.351 cycles
cpu0->cpu0_DTLB TOTAL        ACCESS:   28284958 HIT:   26935597 MISS:    1349361 MSHR_MERGE:     347085
cpu0->cpu0_DTLB LOAD         ACCESS:   28284958 HIT:   26935597 MISS:    1349361 MSHR_MERGE:     347085
cpu0->cpu0_DTLB RFO          ACCESS:          0 HIT:          0 MISS:          0 MSHR_MERGE:          0
cpu0->cpu0_DTLB PREFETCH     ACCESS:          0 HIT:          0 MISS:          0 MSHR_MERGE:          0
cpu0->cpu0_DTLB WRITE        ACCESS:          0 HIT:          0 MISS:          0 MSHR_MERGE:          0
cpu0->cpu0_DTLB TRANSLATION  ACCESS:          0 HIT:          0 MISS:          0 MSHR_MERGE:          0
cpu0->cpu0_DTLB PREFETCH REQUESTED:          0 ISSUED:          0 USEFUL:          0 USELESS:          0
cpu0->cpu0_DTLB AVERAGE MISS LATENCY: 5.927 cycles
cpu0->LLC TOTAL        ACCESS:    1775356 HIT:    1731627 MISS:      43729 MSHR_MERGE:       3288
cpu0->LLC LOAD         ACCESS:    1248639 HIT:    1229133 MISS:      19506 MSHR_MERGE:        358
cpu0->LLC RFO          ACCESS:     162050 HIT:     153232 MISS:       8818 MSHR_MERGE:          0
cpu0->LLC PREFETCH     ACCESS:      67773 HIT:      55881 MISS:      11892 MSHR_MERGE:       2930
cpu0->LLC WRITE        ACCESS:     284924 HIT:     284763 MISS:        161 MSHR_MERGE:          0
cpu0->LLC TRANSLATION  ACCESS:      11970 HIT:       8618 MISS:       3352 MSHR_MERGE:          0
cpu0->LLC PREFETCH REQUESTED:          0 ISSUED:          0 USEFUL:          0 USELESS:          0
cpu0->LLC AVERAGE MISS LATENCY: 114.4 cycles

DRAM Statistics

Channel 0 RQ ROW_BUFFER_HIT:       1214
  ROW_BUFFER_MISS:      39054
  AVG DBUS CONGESTED CYCLE: 3.363
Channel 0 WQ ROW_BUFFER_HIT:        377
  ROW_BUFFER_MISS:       6008
  FULL:          0
Channel 0 REFRESHES ISSUED:       7469

==== TLB→Cache/MEM Breakdown (ROI totals across all caches) ====

DTLB
  (case)                                L1I          L1D          L2C          LLC          MEM
  STLB hit → final level                  0       495490       528270       119587         2545
---------------------------------------------------------------
  STLB miss resolved @ L1D                0           47         1828         1292          325
  STLB miss resolved @ L2C                0         1539         1866         1119          125
  STLB miss resolved @ LLC                0          738         1308         3536          717
  STLB miss resolved @ MEM                0            2          487         2336         1492

ITLB
  (case)                                L1I          L1D          L2C          LLC          MEM
  STLB hit → final level             185965        49427      1370940       163703          337
---------------------------------------------------------------
  STLB miss resolved @ L1D                0            4          957          566           41
  STLB miss resolved @ L2C                0         1116         6229         1642            6
  STLB miss resolved @ LLC                0          133         3416         1237           67
  STLB miss resolved @ MEM                0            0          112          233          155
[2025-09-18 03:50:37] END   suite=qualcomm_srv trace=srv317_ap (rc=0)
