[2025-09-18 09:42:23] START suite=qualcomm_srv trace=srv589_ap
CMD: ./bin/champsim -w 20000000 -i 100000000 /home/ho/itp_asplos25_AE/traces/qualcomm_srv/srv589_ap.champsimtrace.xz
[VMEM] WARNING: physical memory size is smaller than virtual memory size.

*** ChampSim Multicore Out-of-Order Simulator ***
Warmup Instructions: 20000000
Simulation Instructions: 100000000
Number of CPUs: 1
Page size: 4096

Off-chip DRAM Size: 16 GiB Channels: 1 Width: 64-bit Data Rate: 3205 MT/s
[BTB] WARNING: target of return is a lower address than the corresponding call. This is usually a problem with your trace.
[BTB] WARNING: target of return is a lower address than the corresponding call. This is usually a problem with your trace.
[BTB] WARNING: target of return is a lower address than the corresponding call. This is usually a problem with your trace.
[BTB] WARNING: target of return is a lower address than the corresponding call. This is usually a problem with your trace.
[BTB] WARNING: target of return is a lower address than the corresponding call. This is usually a problem with your trace.
[BTB] WARNING: target of return is a lower address than the corresponding call. This is usually a problem with your trace.
[BTB] WARNING: target of return is a lower address than the corresponding call. This is usually a problem with your trace.
[BTB] WARNING: target of return is a lower address than the corresponding call. This is usually a problem with your trace.
[BTB] WARNING: target of return is a lower address than the corresponding call. This is usually a problem with your trace.
[BTB] WARNING: target of return is a lower address than the corresponding call. This is usually a problem with your trace.
Heartbeat CPU 0 instructions: 10000004 cycles: 2800072 heartbeat IPC: 3.571 cumulative IPC: 3.571 (Simulation time: 00 hr 00 min 40 sec)
Warmup finished CPU 0 instructions: 20000000 cycles: 5370032 cumulative IPC: 3.724 (Simulation time: 00 hr 01 min 17 sec)
Warmup complete CPU 0 instructions: 20000000 cycles: 5370032 cumulative IPC: 3.724 (Simulation time: 00 hr 01 min 17 sec)
Heartbeat CPU 0 instructions: 20000005 cycles: 5370033 heartbeat IPC: 3.891 cumulative IPC: 5 (Simulation time: 00 hr 01 min 17 sec)
Heartbeat CPU 0 instructions: 30000009 cycles: 14683763 heartbeat IPC: 1.074 cumulative IPC: 1.074 (Simulation time: 00 hr 02 min 23 sec)
Heartbeat CPU 0 instructions: 40000011 cycles: 23932045 heartbeat IPC: 1.081 cumulative IPC: 1.077 (Simulation time: 00 hr 03 min 29 sec)
Heartbeat CPU 0 instructions: 50000013 cycles: 33306318 heartbeat IPC: 1.067 cumulative IPC: 1.074 (Simulation time: 00 hr 04 min 36 sec)
*** Reached end of trace: (0, "/home/ho/itp_asplos25_AE/traces/qualcomm_srv/srv589_ap.champsimtrace.xz")
Heartbeat CPU 0 instructions: 60000014 cycles: 42678367 heartbeat IPC: 1.067 cumulative IPC: 1.072 (Simulation time: 00 hr 05 min 44 sec)
Heartbeat CPU 0 instructions: 70000017 cycles: 51990857 heartbeat IPC: 1.074 cumulative IPC: 1.072 (Simulation time: 00 hr 06 min 56 sec)
Heartbeat CPU 0 instructions: 80000020 cycles: 61155151 heartbeat IPC: 1.091 cumulative IPC: 1.076 (Simulation time: 00 hr 08 min 11 sec)
Heartbeat CPU 0 instructions: 90000024 cycles: 70256704 heartbeat IPC: 1.099 cumulative IPC: 1.079 (Simulation time: 00 hr 09 min 19 sec)
Heartbeat CPU 0 instructions: 100000024 cycles: 79353942 heartbeat IPC: 1.099 cumulative IPC: 1.081 (Simulation time: 00 hr 10 min 33 sec)
Heartbeat CPU 0 instructions: 110000024 cycles: 88608044 heartbeat IPC: 1.081 cumulative IPC: 1.081 (Simulation time: 00 hr 11 min 39 sec)
*** Reached end of trace: (0, "/home/ho/itp_asplos25_AE/traces/qualcomm_srv/srv589_ap.champsimtrace.xz")
Simulation finished CPU 0 instructions: 100000001 cycles: 92482043 cumulative IPC: 1.081 (Simulation time: 00 hr 12 min 45 sec)
Simulation complete CPU 0 instructions: 100000001 cycles: 92482043 cumulative IPC: 1.081 (Simulation time: 00 hr 12 min 45 sec)

ChampSim completed all CPUs

=== Simulation ===
CPU 0 runs /home/ho/itp_asplos25_AE/traces/qualcomm_srv/srv589_ap.champsimtrace.xz

Region of Interest Statistics

CPU 0 cumulative IPC: 1.081 instructions: 100000001 cycles: 92482043
CPU 0 Branch Prediction Accuracy: 92.43% MPKI: 13.62 Average ROB Occupancy at Mispredict: 29.81
Branch type MPKI
BRANCH_DIRECT_JUMP: 0.06979
BRANCH_INDIRECT: 0.3345
BRANCH_CONDITIONAL: 11.96
BRANCH_DIRECT_CALL: 0.398
BRANCH_INDIRECT_CALL: 0.4747
BRANCH_RETURN: 0.3771


====Backend Stall Breakdown====
ROB_STALL: 169697
LQ_STALL: 0
SQ_STALL: 849963


====ROB Stall Breakdown====

== Average ==
ADDR_TRANS: 144.51407
REPLAY_LOAD: 61.092167
NON_REPLAY_LOAD: 20.876204

== Total ==
ADDR_TRANS: 56505
REPLAY_LOAD: 26514
NON_REPLAY_LOAD: 86678

== Counts ==
ADDR_TRANS: 391
REPLAY_LOAD: 434
NON_REPLAY_LOAD: 4152

cpu0->cpu0_STLB TOTAL        ACCESS:    2064075 HIT:    2037316 MISS:      26759 MSHR_MERGE:          0
cpu0->cpu0_STLB LOAD         ACCESS:    2064075 HIT:    2037316 MISS:      26759 MSHR_MERGE:          0
cpu0->cpu0_STLB RFO          ACCESS:          0 HIT:          0 MISS:          0 MSHR_MERGE:          0
cpu0->cpu0_STLB PREFETCH     ACCESS:          0 HIT:          0 MISS:          0 MSHR_MERGE:          0
cpu0->cpu0_STLB WRITE        ACCESS:          0 HIT:          0 MISS:          0 MSHR_MERGE:          0
cpu0->cpu0_STLB TRANSLATION  ACCESS:          0 HIT:          0 MISS:          0 MSHR_MERGE:          0
cpu0->cpu0_STLB PREFETCH REQUESTED:          0 ISSUED:          0 USEFUL:          0 USELESS:          0
cpu0->cpu0_STLB AVERAGE MISS LATENCY: 180.2 cycles
cpu0->cpu0_L2C TOTAL        ACCESS:    9806051 HIT:    8678052 MISS:    1127999 MSHR_MERGE:      53606
cpu0->cpu0_L2C LOAD         ACCESS:    7572605 HIT:    6674377 MISS:     898228 MSHR_MERGE:       3001
cpu0->cpu0_L2C RFO          ACCESS:     590743 HIT:     511960 MISS:      78783 MSHR_MERGE:          0
cpu0->cpu0_L2C PREFETCH     ACCESS:     446041 HIT:     359547 MISS:      86494 MSHR_MERGE:      50605
cpu0->cpu0_L2C WRITE        ACCESS:    1135357 HIT:    1119673 MISS:      15684 MSHR_MERGE:          0
cpu0->cpu0_L2C TRANSLATION  ACCESS:      61305 HIT:      12495 MISS:      48810 MSHR_MERGE:          0
cpu0->cpu0_L2C PREFETCH REQUESTED:     569127 ISSUED:     258295 USEFUL:       4289 USELESS:      11995
cpu0->cpu0_L2C AVERAGE MISS LATENCY: 37.28 cycles
cpu0->cpu0_L1I TOTAL        ACCESS:   14993793 HIT:    7565276 MISS:    7428517 MSHR_MERGE:    1808741
cpu0->cpu0_L1I LOAD         ACCESS:   14993793 HIT:    7565276 MISS:    7428517 MSHR_MERGE:    1808741
cpu0->cpu0_L1I RFO          ACCESS:          0 HIT:          0 MISS:          0 MSHR_MERGE:          0
cpu0->cpu0_L1I PREFETCH     ACCESS:          0 HIT:          0 MISS:          0 MSHR_MERGE:          0
cpu0->cpu0_L1I WRITE        ACCESS:          0 HIT:          0 MISS:          0 MSHR_MERGE:          0
cpu0->cpu0_L1I TRANSLATION  ACCESS:          0 HIT:          0 MISS:          0 MSHR_MERGE:          0
cpu0->cpu0_L1I PREFETCH REQUESTED:          0 ISSUED:          0 USEFUL:          0 USELESS:          0
cpu0->cpu0_L1I AVERAGE MISS LATENCY: 14.66 cycles
cpu0->cpu0_L1D TOTAL        ACCESS:   30297614 HIT:   25529150 MISS:    4768464 MSHR_MERGE:    1923233
cpu0->cpu0_L1D LOAD         ACCESS:   16449207 HIT:   13900545 MISS:    2548662 MSHR_MERGE:     595829
cpu0->cpu0_L1D RFO          ACCESS:          0 HIT:          0 MISS:          0 MSHR_MERGE:          0
cpu0->cpu0_L1D PREFETCH     ACCESS:     616140 HIT:     240088 MISS:     376052 MSHR_MERGE:     135702
cpu0->cpu0_L1D WRITE        ACCESS:   13166247 HIT:   11383960 MISS:    1782287 MSHR_MERGE:    1191544
cpu0->cpu0_L1D TRANSLATION  ACCESS:      66020 HIT:       4557 MISS:      61463 MSHR_MERGE:        158
cpu0->cpu0_L1D PREFETCH REQUESTED:     827746 ISSUED:     616140 USEFUL:      77803 USELESS:      51119
cpu0->cpu0_L1D AVERAGE MISS LATENCY: 19.5 cycles
cpu0->cpu0_ITLB TOTAL        ACCESS:   12324111 HIT:   10243756 MISS:    2080355 MSHR_MERGE:    1048725
cpu0->cpu0_ITLB LOAD         ACCESS:   12324111 HIT:   10243756 MISS:    2080355 MSHR_MERGE:    1048725
cpu0->cpu0_ITLB RFO          ACCESS:          0 HIT:          0 MISS:          0 MSHR_MERGE:          0
cpu0->cpu0_ITLB PREFETCH     ACCESS:          0 HIT:          0 MISS:          0 MSHR_MERGE:          0
cpu0->cpu0_ITLB WRITE        ACCESS:          0 HIT:          0 MISS:          0 MSHR_MERGE:          0
cpu0->cpu0_ITLB TRANSLATION  ACCESS:          0 HIT:          0 MISS:          0 MSHR_MERGE:          0
cpu0->cpu0_ITLB PREFETCH REQUESTED:          0 ISSUED:          0 USEFUL:          0 USELESS:          0
cpu0->cpu0_ITLB AVERAGE MISS LATENCY: 5.329 cycles
cpu0->cpu0_DTLB TOTAL        ACCESS:   28207297 HIT:   26796507 MISS:    1410790 MSHR_MERGE:     378345
cpu0->cpu0_DTLB LOAD         ACCESS:   28207297 HIT:   26796507 MISS:    1410790 MSHR_MERGE:     378345
cpu0->cpu0_DTLB RFO          ACCESS:          0 HIT:          0 MISS:          0 MSHR_MERGE:          0
cpu0->cpu0_DTLB PREFETCH     ACCESS:          0 HIT:          0 MISS:          0 MSHR_MERGE:          0
cpu0->cpu0_DTLB WRITE        ACCESS:          0 HIT:          0 MISS:          0 MSHR_MERGE:          0
cpu0->cpu0_DTLB TRANSLATION  ACCESS:          0 HIT:          0 MISS:          0 MSHR_MERGE:          0
cpu0->cpu0_DTLB PREFETCH REQUESTED:          0 ISSUED:          0 USEFUL:          0 USELESS:          0
cpu0->cpu0_DTLB AVERAGE MISS LATENCY: 9.295 cycles
cpu0->LLC TOTAL        ACCESS:    1210661 HIT:    1111502 MISS:      99159 MSHR_MERGE:       3273
cpu0->LLC LOAD         ACCESS:     895227 HIT:     838748 MISS:      56479 MSHR_MERGE:         49
cpu0->LLC RFO          ACCESS:      78782 HIT:      70919 MISS:       7863 MSHR_MERGE:          0
cpu0->LLC PREFETCH     ACCESS:      35889 HIT:      18971 MISS:      16918 MSHR_MERGE:       3224
cpu0->LLC WRITE        ACCESS:     151953 HIT:     151471 MISS:        482 MSHR_MERGE:          0
cpu0->LLC TRANSLATION  ACCESS:      48810 HIT:      31393 MISS:      17417 MSHR_MERGE:          0
cpu0->LLC PREFETCH REQUESTED:          0 ISSUED:          0 USEFUL:          0 USELESS:          0
cpu0->LLC AVERAGE MISS LATENCY: 100.5 cycles

DRAM Statistics

Channel 0 RQ ROW_BUFFER_HIT:       1644
  ROW_BUFFER_MISS:      93759
  AVG DBUS CONGESTED CYCLE: 4.279
Channel 0 WQ ROW_BUFFER_HIT:       1129
  ROW_BUFFER_MISS:       8891
  FULL:          0
Channel 0 REFRESHES ISSUED:       7707

==== TLB→Cache/MEM Breakdown (ROI totals across all caches) ====

DTLB
  (case)                                L1I          L1D          L2C          LLC          MEM
  STLB hit → final level                  0       486082       573334        77808         9182
---------------------------------------------------------------
  STLB miss resolved @ L1D                1            2         1328         3218         1757
  STLB miss resolved @ L2C                1          483         3010         6484         4669
  STLB miss resolved @ LLC                1           98         5506        16010        11732
  STLB miss resolved @ MEM                0            0         2384         9441        13507

ITLB
  (case)                                L1I          L1D          L2C          LLC          MEM
  STLB hit → final level             190195        51728      1374296       144534          445
---------------------------------------------------------------
  STLB miss resolved @ L1D                1            2          814          818           43
  STLB miss resolved @ L2C                1          239         1795         1092           37
  STLB miss resolved @ LLC                1           86         2070         2815          165
  STLB miss resolved @ MEM                0            0          453          701          173
[2025-09-18 09:55:09] END   suite=qualcomm_srv trace=srv589_ap (rc=0)
