[2025-09-18 04:23:06] START suite=qualcomm_srv trace=srv600_ap
CMD: ./bin/champsim -w 20000000 -i 100000000 /home/ho/itp_asplos25_AE/traces/qualcomm_srv/srv600_ap.champsimtrace.xz
[VMEM] WARNING: physical memory size is smaller than virtual memory size.

*** ChampSim Multicore Out-of-Order Simulator ***
Warmup Instructions: 20000000
Simulation Instructions: 100000000
Number of CPUs: 1
Page size: 4096

Off-chip DRAM Size: 16 GiB Channels: 1 Width: 64-bit Data Rate: 3205 MT/s
[BTB] WARNING: target of return is a lower address than the corresponding call. This is usually a problem with your trace.
[BTB] WARNING: target of return is a lower address than the corresponding call. This is usually a problem with your trace.
[BTB] WARNING: target of return is a lower address than the corresponding call. This is usually a problem with your trace.
[BTB] WARNING: target of return is a lower address than the corresponding call. This is usually a problem with your trace.
[BTB] WARNING: target of return is a lower address than the corresponding call. This is usually a problem with your trace.
[BTB] WARNING: target of return is a lower address than the corresponding call. This is usually a problem with your trace.
[BTB] WARNING: target of return is a lower address than the corresponding call. This is usually a problem with your trace.
[BTB] WARNING: target of return is a lower address than the corresponding call. This is usually a problem with your trace.
[BTB] WARNING: target of return is a lower address than the corresponding call. This is usually a problem with your trace.
[BTB] WARNING: target of return is a lower address than the corresponding call. This is usually a problem with your trace.
Heartbeat CPU 0 instructions: 10000004 cycles: 2620440 heartbeat IPC: 3.816 cumulative IPC: 3.816 (Simulation time: 00 hr 00 min 39 sec)
Heartbeat CPU 0 instructions: 20000004 cycles: 5056081 heartbeat IPC: 4.106 cumulative IPC: 3.956 (Simulation time: 00 hr 01 min 18 sec)
Warmup finished CPU 0 instructions: 20000004 cycles: 5056081 cumulative IPC: 3.956 (Simulation time: 00 hr 01 min 18 sec)
Warmup complete CPU 0 instructions: 20000004 cycles: 5056081 cumulative IPC: 3.956 (Simulation time: 00 hr 01 min 18 sec)
Heartbeat CPU 0 instructions: 30000007 cycles: 13740350 heartbeat IPC: 1.152 cumulative IPC: 1.152 (Simulation time: 00 hr 02 min 27 sec)
Heartbeat CPU 0 instructions: 40000009 cycles: 22580608 heartbeat IPC: 1.131 cumulative IPC: 1.141 (Simulation time: 00 hr 03 min 34 sec)
Heartbeat CPU 0 instructions: 50000009 cycles: 31360282 heartbeat IPC: 1.139 cumulative IPC: 1.141 (Simulation time: 00 hr 04 min 43 sec)
Heartbeat CPU 0 instructions: 60000013 cycles: 40072630 heartbeat IPC: 1.148 cumulative IPC: 1.142 (Simulation time: 00 hr 05 min 53 sec)
Heartbeat CPU 0 instructions: 70000013 cycles: 48689995 heartbeat IPC: 1.16 cumulative IPC: 1.146 (Simulation time: 00 hr 06 min 58 sec)
Heartbeat CPU 0 instructions: 80000015 cycles: 57333433 heartbeat IPC: 1.157 cumulative IPC: 1.148 (Simulation time: 00 hr 08 min 03 sec)
*** Reached end of trace: (0, "/home/ho/itp_asplos25_AE/traces/qualcomm_srv/srv600_ap.champsimtrace.xz")
Heartbeat CPU 0 instructions: 90000018 cycles: 66051208 heartbeat IPC: 1.147 cumulative IPC: 1.148 (Simulation time: 00 hr 09 min 07 sec)
Heartbeat CPU 0 instructions: 100000020 cycles: 74818916 heartbeat IPC: 1.141 cumulative IPC: 1.147 (Simulation time: 00 hr 10 min 17 sec)
Heartbeat CPU 0 instructions: 110000022 cycles: 83476236 heartbeat IPC: 1.155 cumulative IPC: 1.148 (Simulation time: 00 hr 11 min 26 sec)
Simulation finished CPU 0 instructions: 100000000 cycles: 87036568 cumulative IPC: 1.149 (Simulation time: 00 hr 12 min 38 sec)
Simulation complete CPU 0 instructions: 100000000 cycles: 87036568 cumulative IPC: 1.149 (Simulation time: 00 hr 12 min 38 sec)

ChampSim completed all CPUs

=== Simulation ===
CPU 0 runs /home/ho/itp_asplos25_AE/traces/qualcomm_srv/srv600_ap.champsimtrace.xz

Region of Interest Statistics

CPU 0 cumulative IPC: 1.149 instructions: 100000000 cycles: 87036568
CPU 0 Branch Prediction Accuracy: 92.55% MPKI: 13.4 Average ROB Occupancy at Mispredict: 28.96
Branch type MPKI
BRANCH_DIRECT_JUMP: 0.129
BRANCH_INDIRECT: 0.366
BRANCH_CONDITIONAL: 11.49
BRANCH_DIRECT_CALL: 0.4725
BRANCH_INDIRECT_CALL: 0.5283
BRANCH_RETURN: 0.4135


====Backend Stall Breakdown====
ROB_STALL: 30963
LQ_STALL: 0
SQ_STALL: 384622


====ROB Stall Breakdown====

== Average ==
ADDR_TRANS: 87.083336
REPLAY_LOAD: 14.022388
NON_REPLAY_LOAD: 6.345557

== Total ==
ADDR_TRANS: 2090
REPLAY_LOAD: 1879
NON_REPLAY_LOAD: 26994

== Counts ==
ADDR_TRANS: 24
REPLAY_LOAD: 134
NON_REPLAY_LOAD: 4254

cpu0->cpu0_STLB TOTAL        ACCESS:    2050866 HIT:    2037214 MISS:      13652 MSHR_MERGE:          0
cpu0->cpu0_STLB LOAD         ACCESS:    2050866 HIT:    2037214 MISS:      13652 MSHR_MERGE:          0
cpu0->cpu0_STLB RFO          ACCESS:          0 HIT:          0 MISS:          0 MSHR_MERGE:          0
cpu0->cpu0_STLB PREFETCH     ACCESS:          0 HIT:          0 MISS:          0 MSHR_MERGE:          0
cpu0->cpu0_STLB WRITE        ACCESS:          0 HIT:          0 MISS:          0 MSHR_MERGE:          0
cpu0->cpu0_STLB TRANSLATION  ACCESS:          0 HIT:          0 MISS:          0 MSHR_MERGE:          0
cpu0->cpu0_STLB PREFETCH REQUESTED:          0 ISSUED:          0 USEFUL:          0 USELESS:          0
cpu0->cpu0_STLB AVERAGE MISS LATENCY: 85.07 cycles
cpu0->cpu0_L2C TOTAL        ACCESS:   10050079 HIT:    8851594 MISS:    1198485 MSHR_MERGE:      70169
cpu0->cpu0_L2C LOAD         ACCESS:    7768023 HIT:    6784601 MISS:     983422 MSHR_MERGE:       9193
cpu0->cpu0_L2C RFO          ACCESS:     593721 HIT:     509556 MISS:      84165 MSHR_MERGE:          0
cpu0->cpu0_L2C PREFETCH     ACCESS:     510908 HIT:     398918 MISS:     111990 MSHR_MERGE:      60976
cpu0->cpu0_L2C WRITE        ACCESS:    1154750 HIT:    1146736 MISS:       8014 MSHR_MERGE:          0
cpu0->cpu0_L2C TRANSLATION  ACCESS:      22677 HIT:      11783 MISS:      10894 MSHR_MERGE:          0
cpu0->cpu0_L2C PREFETCH REQUESTED:     885787 ISSUED:     287311 USEFUL:       6620 USELESS:      14724
cpu0->cpu0_L2C AVERAGE MISS LATENCY: 31.62 cycles
cpu0->cpu0_L1I TOTAL        ACCESS:   15139152 HIT:    7675656 MISS:    7463496 MSHR_MERGE:    1792588
cpu0->cpu0_L1I LOAD         ACCESS:   15139152 HIT:    7675656 MISS:    7463496 MSHR_MERGE:    1792588
cpu0->cpu0_L1I RFO          ACCESS:          0 HIT:          0 MISS:          0 MSHR_MERGE:          0
cpu0->cpu0_L1I PREFETCH     ACCESS:          0 HIT:          0 MISS:          0 MSHR_MERGE:          0
cpu0->cpu0_L1I WRITE        ACCESS:          0 HIT:          0 MISS:          0 MSHR_MERGE:          0
cpu0->cpu0_L1I TRANSLATION  ACCESS:          0 HIT:          0 MISS:          0 MSHR_MERGE:          0
cpu0->cpu0_L1I PREFETCH REQUESTED:          0 ISSUED:          0 USEFUL:          0 USELESS:          0
cpu0->cpu0_L1I AVERAGE MISS LATENCY: 15.03 cycles
cpu0->cpu0_L1D TOTAL        ACCESS:   30396384 HIT:   25498594 MISS:    4897790 MSHR_MERGE:    1876136
cpu0->cpu0_L1D LOAD         ACCESS:   16533375 HIT:   13904326 MISS:    2629049 MSHR_MERGE:     531920
cpu0->cpu0_L1D RFO          ACCESS:          0 HIT:          0 MISS:          0 MSHR_MERGE:          0
cpu0->cpu0_L1D PREFETCH     ACCESS:     683136 HIT:     227035 MISS:     456101 MSHR_MERGE:     147974
cpu0->cpu0_L1D WRITE        ACCESS:   13152407 HIT:   11362594 MISS:    1789813 MSHR_MERGE:    1196092
cpu0->cpu0_L1D TRANSLATION  ACCESS:      27466 HIT:       4639 MISS:      22827 MSHR_MERGE:        150
cpu0->cpu0_L1D PREFETCH REQUESTED:     847977 ISSUED:     683136 USEFUL:      81427 USELESS:      43622
cpu0->cpu0_L1D AVERAGE MISS LATENCY: 17.02 cycles
cpu0->cpu0_ITLB TOTAL        ACCESS:   12436729 HIT:   10343098 MISS:    2093631 MSHR_MERGE:    1049413
cpu0->cpu0_ITLB LOAD         ACCESS:   12436729 HIT:   10343098 MISS:    2093631 MSHR_MERGE:    1049413
cpu0->cpu0_ITLB RFO          ACCESS:          0 HIT:          0 MISS:          0 MSHR_MERGE:          0
cpu0->cpu0_ITLB PREFETCH     ACCESS:          0 HIT:          0 MISS:          0 MSHR_MERGE:          0
cpu0->cpu0_ITLB WRITE        ACCESS:          0 HIT:          0 MISS:          0 MSHR_MERGE:          0
cpu0->cpu0_ITLB TRANSLATION  ACCESS:          0 HIT:          0 MISS:          0 MSHR_MERGE:          0
cpu0->cpu0_ITLB PREFETCH REQUESTED:          0 ISSUED:          0 USEFUL:          0 USELESS:          0
cpu0->cpu0_ITLB AVERAGE MISS LATENCY: 5.344 cycles
cpu0->cpu0_DTLB TOTAL        ACCESS:   28237553 HIT:   26888013 MISS:    1349540 MSHR_MERGE:     342893
cpu0->cpu0_DTLB LOAD         ACCESS:   28237553 HIT:   26888013 MISS:    1349540 MSHR_MERGE:     342893
cpu0->cpu0_DTLB RFO          ACCESS:          0 HIT:          0 MISS:          0 MSHR_MERGE:          0
cpu0->cpu0_DTLB PREFETCH     ACCESS:          0 HIT:          0 MISS:          0 MSHR_MERGE:          0
cpu0->cpu0_DTLB WRITE        ACCESS:          0 HIT:          0 MISS:          0 MSHR_MERGE:          0
cpu0->cpu0_DTLB TRANSLATION  ACCESS:          0 HIT:          0 MISS:          0 MSHR_MERGE:          0
cpu0->cpu0_DTLB PREFETCH REQUESTED:          0 ISSUED:          0 USEFUL:          0 USELESS:          0
cpu0->cpu0_DTLB AVERAGE MISS LATENCY: 5.78 cycles
cpu0->LLC TOTAL        ACCESS:    1267478 HIT:    1240932 MISS:      26546 MSHR_MERGE:       1078
cpu0->LLC LOAD         ACCESS:     974229 HIT:     959639 MISS:      14590 MSHR_MERGE:         51
cpu0->LLC RFO          ACCESS:      84164 HIT:      81535 MISS:       2629 MSHR_MERGE:          0
cpu0->LLC PREFETCH     ACCESS:      51014 HIT:      44297 MISS:       6717 MSHR_MERGE:       1027
cpu0->LLC WRITE        ACCESS:     147177 HIT:     147117 MISS:         60 MSHR_MERGE:          0
cpu0->LLC TRANSLATION  ACCESS:      10894 HIT:       8344 MISS:       2550 MSHR_MERGE:          0
cpu0->LLC PREFETCH REQUESTED:          0 ISSUED:          0 USEFUL:          0 USELESS:          0
cpu0->LLC AVERAGE MISS LATENCY: 103 cycles

DRAM Statistics

Channel 0 RQ ROW_BUFFER_HIT:         33
  ROW_BUFFER_MISS:      25375
  AVG DBUS CONGESTED CYCLE: 3.077
Channel 0 WQ ROW_BUFFER_HIT:         33
  ROW_BUFFER_MISS:       1568
  FULL:          0
Channel 0 REFRESHES ISSUED:       7253

==== TLB→Cache/MEM Breakdown (ROI totals across all caches) ====

DTLB
  (case)                                L1I          L1D          L2C          LLC          MEM
  STLB hit → final level                  0       499040       567673        79598         1732
---------------------------------------------------------------
  STLB miss resolved @ L1D                0           62         2277          940          178
  STLB miss resolved @ L2C                0         1821         2576         1298          121
  STLB miss resolved @ LLC                0          769         1791         2657          596
  STLB miss resolved @ MEM                0            1          764         1811         1119

ITLB
  (case)                                L1I          L1D          L2C          LLC          MEM
  STLB hit → final level             179090        52742      1386383       143419           90
---------------------------------------------------------------
  STLB miss resolved @ L1D                0            3         1043          591            8
  STLB miss resolved @ L2C                0          935         7202         1296            3
  STLB miss resolved @ LLC                0          464         2706         2171           13
  STLB miss resolved @ MEM                0            0           63           97           42
[2025-09-18 04:35:45] END   suite=qualcomm_srv trace=srv600_ap (rc=0)
