[2025-09-18 04:36:08] START suite=qualcomm_srv trace=srv747_ap
CMD: ./bin/champsim -w 20000000 -i 100000000 /home/ho/itp_asplos25_AE/traces/qualcomm_srv/srv747_ap.champsimtrace.xz
[VMEM] WARNING: physical memory size is smaller than virtual memory size.

*** ChampSim Multicore Out-of-Order Simulator ***
Warmup Instructions: 20000000
Simulation Instructions: 100000000
Number of CPUs: 1
Page size: 4096

Off-chip DRAM Size: 16 GiB Channels: 1 Width: 64-bit Data Rate: 3205 MT/s
[BTB] WARNING: target of return is a lower address than the corresponding call. This is usually a problem with your trace.
[BTB] WARNING: target of return is a lower address than the corresponding call. This is usually a problem with your trace.
[BTB] WARNING: target of return is a lower address than the corresponding call. This is usually a problem with your trace.
[BTB] WARNING: target of return is a lower address than the corresponding call. This is usually a problem with your trace.
[BTB] WARNING: target of return is a lower address than the corresponding call. This is usually a problem with your trace.
[BTB] WARNING: target of return is a lower address than the corresponding call. This is usually a problem with your trace.
[BTB] WARNING: target of return is a lower address than the corresponding call. This is usually a problem with your trace.
[BTB] WARNING: target of return is a lower address than the corresponding call. This is usually a problem with your trace.
[BTB] WARNING: target of return is a lower address than the corresponding call. This is usually a problem with your trace.
[BTB] WARNING: target of return is a lower address than the corresponding call. This is usually a problem with your trace.
Heartbeat CPU 0 instructions: 10000002 cycles: 2606256 heartbeat IPC: 3.837 cumulative IPC: 3.837 (Simulation time: 00 hr 00 min 39 sec)
Heartbeat CPU 0 instructions: 20000003 cycles: 5058657 heartbeat IPC: 4.078 cumulative IPC: 3.954 (Simulation time: 00 hr 01 min 18 sec)
Warmup finished CPU 0 instructions: 20000003 cycles: 5058657 cumulative IPC: 3.954 (Simulation time: 00 hr 01 min 18 sec)
Warmup complete CPU 0 instructions: 20000003 cycles: 5058657 cumulative IPC: 3.954 (Simulation time: 00 hr 01 min 18 sec)
Heartbeat CPU 0 instructions: 30000005 cycles: 14150468 heartbeat IPC: 1.1 cumulative IPC: 1.1 (Simulation time: 00 hr 02 min 32 sec)
Heartbeat CPU 0 instructions: 40000006 cycles: 23271725 heartbeat IPC: 1.096 cumulative IPC: 1.098 (Simulation time: 00 hr 03 min 48 sec)
Heartbeat CPU 0 instructions: 50000008 cycles: 32342891 heartbeat IPC: 1.102 cumulative IPC: 1.1 (Simulation time: 00 hr 05 min 00 sec)
Heartbeat CPU 0 instructions: 60000010 cycles: 41434333 heartbeat IPC: 1.1 cumulative IPC: 1.1 (Simulation time: 00 hr 06 min 09 sec)
Heartbeat CPU 0 instructions: 70000012 cycles: 50473251 heartbeat IPC: 1.106 cumulative IPC: 1.101 (Simulation time: 00 hr 07 min 17 sec)
Heartbeat CPU 0 instructions: 80000013 cycles: 59610765 heartbeat IPC: 1.094 cumulative IPC: 1.1 (Simulation time: 00 hr 08 min 22 sec)
Heartbeat CPU 0 instructions: 90000016 cycles: 68663393 heartbeat IPC: 1.105 cumulative IPC: 1.101 (Simulation time: 00 hr 09 min 26 sec)
Heartbeat CPU 0 instructions: 100000018 cycles: 77735270 heartbeat IPC: 1.102 cumulative IPC: 1.101 (Simulation time: 00 hr 10 min 30 sec)
*** Reached end of trace: (0, "/home/ho/itp_asplos25_AE/traces/qualcomm_srv/srv747_ap.champsimtrace.xz")
Heartbeat CPU 0 instructions: 110000020 cycles: 86883135 heartbeat IPC: 1.093 cumulative IPC: 1.1 (Simulation time: 00 hr 11 min 34 sec)
Simulation finished CPU 0 instructions: 100000000 cycles: 90943445 cumulative IPC: 1.1 (Simulation time: 00 hr 12 min 45 sec)
Simulation complete CPU 0 instructions: 100000000 cycles: 90943445 cumulative IPC: 1.1 (Simulation time: 00 hr 12 min 45 sec)

ChampSim completed all CPUs

=== Simulation ===
CPU 0 runs /home/ho/itp_asplos25_AE/traces/qualcomm_srv/srv747_ap.champsimtrace.xz

Region of Interest Statistics

CPU 0 cumulative IPC: 1.1 instructions: 100000000 cycles: 90943445
CPU 0 Branch Prediction Accuracy: 90.79% MPKI: 16.19 Average ROB Occupancy at Mispredict: 26.08
Branch type MPKI
BRANCH_DIRECT_JUMP: 0.3868
BRANCH_INDIRECT: 0.4092
BRANCH_CONDITIONAL: 13.24
BRANCH_DIRECT_CALL: 0.9333
BRANCH_INDIRECT_CALL: 0.5935
BRANCH_RETURN: 0.6272


====Backend Stall Breakdown====
ROB_STALL: 85497
LQ_STALL: 0
SQ_STALL: 563608


====ROB Stall Breakdown====

== Average ==
ADDR_TRANS: 173.1628
REPLAY_LOAD: 74.052635
NON_REPLAY_LOAD: 18.475975

== Total ==
ADDR_TRANS: 7446
REPLAY_LOAD: 4221
NON_REPLAY_LOAD: 73830

== Counts ==
ADDR_TRANS: 43
REPLAY_LOAD: 57
NON_REPLAY_LOAD: 3996

cpu0->cpu0_STLB TOTAL        ACCESS:    1867775 HIT:    1863132 MISS:       4643 MSHR_MERGE:          0
cpu0->cpu0_STLB LOAD         ACCESS:    1867775 HIT:    1863132 MISS:       4643 MSHR_MERGE:          0
cpu0->cpu0_STLB RFO          ACCESS:          0 HIT:          0 MISS:          0 MSHR_MERGE:          0
cpu0->cpu0_STLB PREFETCH     ACCESS:          0 HIT:          0 MISS:          0 MSHR_MERGE:          0
cpu0->cpu0_STLB WRITE        ACCESS:          0 HIT:          0 MISS:          0 MSHR_MERGE:          0
cpu0->cpu0_STLB TRANSLATION  ACCESS:          0 HIT:          0 MISS:          0 MSHR_MERGE:          0
cpu0->cpu0_STLB PREFETCH REQUESTED:          0 ISSUED:          0 USEFUL:          0 USELESS:          0
cpu0->cpu0_STLB AVERAGE MISS LATENCY: 228.9 cycles
cpu0->cpu0_L2C TOTAL        ACCESS:    8575672 HIT:    7419543 MISS:    1156129 MSHR_MERGE:      53537
cpu0->cpu0_L2C LOAD         ACCESS:    6748064 HIT:    5882943 MISS:     865121 MSHR_MERGE:       7030
cpu0->cpu0_L2C RFO          ACCESS:     557285 HIT:     380385 MISS:     176900 MSHR_MERGE:          0
cpu0->cpu0_L2C PREFETCH     ACCESS:     258504 HIT:     164548 MISS:      93956 MSHR_MERGE:      46507
cpu0->cpu0_L2C WRITE        ACCESS:    1003643 HIT:     990910 MISS:      12733 MSHR_MERGE:          0
cpu0->cpu0_L2C TRANSLATION  ACCESS:       8176 HIT:        757 MISS:       7419 MSHR_MERGE:          0
cpu0->cpu0_L2C PREFETCH REQUESTED:     191742 ISSUED:     173538 USEFUL:      11259 USELESS:      12099
cpu0->cpu0_L2C AVERAGE MISS LATENCY: 35.12 cycles
cpu0->cpu0_L1I TOTAL        ACCESS:   15005701 HIT:    8041982 MISS:    6963719 MSHR_MERGE:    1639213
cpu0->cpu0_L1I LOAD         ACCESS:   15005701 HIT:    8041982 MISS:    6963719 MSHR_MERGE:    1639213
cpu0->cpu0_L1I RFO          ACCESS:          0 HIT:          0 MISS:          0 MSHR_MERGE:          0
cpu0->cpu0_L1I PREFETCH     ACCESS:          0 HIT:          0 MISS:          0 MSHR_MERGE:          0
cpu0->cpu0_L1I WRITE        ACCESS:          0 HIT:          0 MISS:          0 MSHR_MERGE:          0
cpu0->cpu0_L1I TRANSLATION  ACCESS:          0 HIT:          0 MISS:          0 MSHR_MERGE:          0
cpu0->cpu0_L1I PREFETCH REQUESTED:          0 ISSUED:          0 USEFUL:          0 USELESS:          0
cpu0->cpu0_L1I AVERAGE MISS LATENCY: 14.67 cycles
cpu0->cpu0_L1D TOTAL        ACCESS:   30988972 HIT:   27339880 MISS:    3649092 MSHR_MERGE:    1568251
cpu0->cpu0_L1D LOAD         ACCESS:   17155645 HIT:   15345528 MISS:    1810117 MSHR_MERGE:     386552
cpu0->cpu0_L1D RFO          ACCESS:          0 HIT:          0 MISS:          0 MSHR_MERGE:          0
cpu0->cpu0_L1D PREFETCH     ACCESS:     476827 HIT:     312794 MISS:     164033 MSHR_MERGE:      72219
cpu0->cpu0_L1D WRITE        ACCESS:   13347048 HIT:   11680396 MISS:    1666652 MSHR_MERGE:    1109366
cpu0->cpu0_L1D TRANSLATION  ACCESS:       9452 HIT:       1162 MISS:       8290 MSHR_MERGE:        114
cpu0->cpu0_L1D PREFETCH REQUESTED:     691140 ISSUED:     476819 USEFUL:      21919 USELESS:      45061
cpu0->cpu0_L1D AVERAGE MISS LATENCY: 21.69 cycles
cpu0->cpu0_ITLB TOTAL        ACCESS:   12453745 HIT:   10549629 MISS:    1904116 MSHR_MERGE:     952653
cpu0->cpu0_ITLB LOAD         ACCESS:   12453745 HIT:   10549629 MISS:    1904116 MSHR_MERGE:     952653
cpu0->cpu0_ITLB RFO          ACCESS:          0 HIT:          0 MISS:          0 MSHR_MERGE:          0
cpu0->cpu0_ITLB PREFETCH     ACCESS:          0 HIT:          0 MISS:          0 MSHR_MERGE:          0
cpu0->cpu0_ITLB WRITE        ACCESS:          0 HIT:          0 MISS:          0 MSHR_MERGE:          0
cpu0->cpu0_ITLB TRANSLATION  ACCESS:          0 HIT:          0 MISS:          0 MSHR_MERGE:          0
cpu0->cpu0_ITLB PREFETCH REQUESTED:          0 ISSUED:          0 USEFUL:          0 USELESS:          0
cpu0->cpu0_ITLB AVERAGE MISS LATENCY: 5.089 cycles
cpu0->cpu0_DTLB TOTAL        ACCESS:   28930272 HIT:   27697173 MISS:    1233099 MSHR_MERGE:     316787
cpu0->cpu0_DTLB LOAD         ACCESS:   28930272 HIT:   27697173 MISS:    1233099 MSHR_MERGE:     316787
cpu0->cpu0_DTLB RFO          ACCESS:          0 HIT:          0 MISS:          0 MSHR_MERGE:          0
cpu0->cpu0_DTLB PREFETCH     ACCESS:          0 HIT:          0 MISS:          0 MSHR_MERGE:          0
cpu0->cpu0_DTLB WRITE        ACCESS:          0 HIT:          0 MISS:          0 MSHR_MERGE:          0
cpu0->cpu0_DTLB TRANSLATION  ACCESS:          0 HIT:          0 MISS:          0 MSHR_MERGE:          0
cpu0->cpu0_DTLB PREFETCH REQUESTED:          0 ISSUED:          0 USEFUL:          0 USELESS:          0
cpu0->cpu0_DTLB AVERAGE MISS LATENCY: 6.073 cycles
cpu0->LLC TOTAL        ACCESS:    1355071 HIT:    1294738 MISS:      60333 MSHR_MERGE:       1780
cpu0->LLC LOAD         ACCESS:     858091 HIT:     840969 MISS:      17122 MSHR_MERGE:        157
cpu0->LLC RFO          ACCESS:     176899 HIT:     149506 MISS:      27393 MSHR_MERGE:          0
cpu0->LLC PREFETCH     ACCESS:      47449 HIT:      35862 MISS:      11587 MSHR_MERGE:       1623
cpu0->LLC WRITE        ACCESS:     265213 HIT:     264948 MISS:        265 MSHR_MERGE:          0
cpu0->LLC TRANSLATION  ACCESS:       7419 HIT:       3453 MISS:       3966 MSHR_MERGE:          0
cpu0->LLC PREFETCH REQUESTED:          0 ISSUED:          0 USEFUL:          0 USELESS:          0
cpu0->LLC AVERAGE MISS LATENCY: 117.1 cycles

DRAM Statistics

Channel 0 RQ ROW_BUFFER_HIT:       3502
  ROW_BUFFER_MISS:      54780
  AVG DBUS CONGESTED CYCLE: 3.398
Channel 0 WQ ROW_BUFFER_HIT:        872
  ROW_BUFFER_MISS:      21659
  FULL:          0
Channel 0 REFRESHES ISSUED:       7579

==== TLB→Cache/MEM Breakdown (ROI totals across all caches) ====

DTLB
  (case)                                L1I          L1D          L2C          LLC          MEM
  STLB hit → final level                  0       518004       423590        93150         2170
---------------------------------------------------------------
  STLB miss resolved @ L1D                0           10          258          457          286
  STLB miss resolved @ L2C                0          153          174          265           73
  STLB miss resolved @ LLC                0          254          366         1777          554
  STLB miss resolved @ MEM                0            6          241         2222         2144

ITLB
  (case)                                L1I          L1D          L2C          LLC          MEM
  STLB hit → final level             162254        52337      1260175       143503          453
---------------------------------------------------------------
  STLB miss resolved @ L1D                0            1           86          162           35
  STLB miss resolved @ L2C                0           88          157          133            4
  STLB miss resolved @ LLC                0           81          246          519           64
  STLB miss resolved @ MEM                0            1           49          201           70
[2025-09-18 04:48:54] END   suite=qualcomm_srv trace=srv747_ap (rc=0)
