[2025-09-18 04:16:01] START suite=qualcomm_srv trace=srv728_ap
CMD: ./bin/champsim -w 20000000 -i 100000000 /home/ho/itp_asplos25_AE/traces/qualcomm_srv/srv728_ap.champsimtrace.xz
[VMEM] WARNING: physical memory size is smaller than virtual memory size.

*** ChampSim Multicore Out-of-Order Simulator ***
Warmup Instructions: 20000000
Simulation Instructions: 100000000
Number of CPUs: 1
Page size: 4096

Off-chip DRAM Size: 16 GiB Channels: 1 Width: 64-bit Data Rate: 3205 MT/s
[BTB] WARNING: target of return is a lower address than the corresponding call. This is usually a problem with your trace.
[BTB] WARNING: target of return is a lower address than the corresponding call. This is usually a problem with your trace.
[BTB] WARNING: target of return is a lower address than the corresponding call. This is usually a problem with your trace.
[BTB] WARNING: target of return is a lower address than the corresponding call. This is usually a problem with your trace.
[BTB] WARNING: target of return is a lower address than the corresponding call. This is usually a problem with your trace.
[BTB] WARNING: target of return is a lower address than the corresponding call. This is usually a problem with your trace.
[BTB] WARNING: target of return is a lower address than the corresponding call. This is usually a problem with your trace.
[BTB] WARNING: target of return is a lower address than the corresponding call. This is usually a problem with your trace.
[BTB] WARNING: target of return is a lower address than the corresponding call. This is usually a problem with your trace.
[BTB] WARNING: target of return is a lower address than the corresponding call. This is usually a problem with your trace.
Heartbeat CPU 0 instructions: 10000003 cycles: 2798333 heartbeat IPC: 3.574 cumulative IPC: 3.574 (Simulation time: 00 hr 00 min 40 sec)
Heartbeat CPU 0 instructions: 20000004 cycles: 5381169 heartbeat IPC: 3.872 cumulative IPC: 3.717 (Simulation time: 00 hr 01 min 18 sec)
Warmup finished CPU 0 instructions: 20000004 cycles: 5381169 cumulative IPC: 3.717 (Simulation time: 00 hr 01 min 18 sec)
Warmup complete CPU 0 instructions: 20000004 cycles: 5381169 cumulative IPC: 3.717 (Simulation time: 00 hr 01 min 18 sec)
Heartbeat CPU 0 instructions: 30000006 cycles: 14879272 heartbeat IPC: 1.053 cumulative IPC: 1.053 (Simulation time: 00 hr 02 min 31 sec)
Heartbeat CPU 0 instructions: 40000010 cycles: 24361981 heartbeat IPC: 1.055 cumulative IPC: 1.054 (Simulation time: 00 hr 03 min 39 sec)
Heartbeat CPU 0 instructions: 50000010 cycles: 33652647 heartbeat IPC: 1.076 cumulative IPC: 1.061 (Simulation time: 00 hr 04 min 49 sec)
Heartbeat CPU 0 instructions: 60000012 cycles: 43330997 heartbeat IPC: 1.033 cumulative IPC: 1.054 (Simulation time: 00 hr 06 min 07 sec)
Heartbeat CPU 0 instructions: 70000013 cycles: 52705522 heartbeat IPC: 1.067 cumulative IPC: 1.057 (Simulation time: 00 hr 07 min 21 sec)
Heartbeat CPU 0 instructions: 80000013 cycles: 62033045 heartbeat IPC: 1.072 cumulative IPC: 1.059 (Simulation time: 00 hr 08 min 37 sec)
*** Reached end of trace: (0, "/home/ho/itp_asplos25_AE/traces/qualcomm_srv/srv728_ap.champsimtrace.xz")
Heartbeat CPU 0 instructions: 90000014 cycles: 71355739 heartbeat IPC: 1.073 cumulative IPC: 1.061 (Simulation time: 00 hr 09 min 51 sec)
Heartbeat CPU 0 instructions: 100000018 cycles: 80680930 heartbeat IPC: 1.072 cumulative IPC: 1.062 (Simulation time: 00 hr 11 min 04 sec)
Heartbeat CPU 0 instructions: 110000022 cycles: 89988152 heartbeat IPC: 1.074 cumulative IPC: 1.064 (Simulation time: 00 hr 12 min 19 sec)
Simulation finished CPU 0 instructions: 100000000 cycles: 93933504 cumulative IPC: 1.065 (Simulation time: 00 hr 13 min 34 sec)
Simulation complete CPU 0 instructions: 100000000 cycles: 93933504 cumulative IPC: 1.065 (Simulation time: 00 hr 13 min 34 sec)

ChampSim completed all CPUs

=== Simulation ===
CPU 0 runs /home/ho/itp_asplos25_AE/traces/qualcomm_srv/srv728_ap.champsimtrace.xz

Region of Interest Statistics

CPU 0 cumulative IPC: 1.065 instructions: 100000000 cycles: 93933504
CPU 0 Branch Prediction Accuracy: 92.58% MPKI: 13.44 Average ROB Occupancy at Mispredict: 29.24
Branch type MPKI
BRANCH_DIRECT_JUMP: 0.06542
BRANCH_INDIRECT: 0.3264
BRANCH_CONDITIONAL: 11.82
BRANCH_DIRECT_CALL: 0.3914
BRANCH_INDIRECT_CALL: 0.4706
BRANCH_RETURN: 0.3688


====Backend Stall Breakdown====
ROB_STALL: 259401
LQ_STALL: 0
SQ_STALL: 959258


====ROB Stall Breakdown====

== Average ==
ADDR_TRANS: 137.06956
REPLAY_LOAD: 58.21269
NON_REPLAY_LOAD: 12.745774

== Total ==
ADDR_TRANS: 63052
REPLAY_LOAD: 31202
NON_REPLAY_LOAD: 165147

== Counts ==
ADDR_TRANS: 460
REPLAY_LOAD: 536
NON_REPLAY_LOAD: 12957

cpu0->cpu0_STLB TOTAL        ACCESS:    2092456 HIT:    2065304 MISS:      27152 MSHR_MERGE:          0
cpu0->cpu0_STLB LOAD         ACCESS:    2092456 HIT:    2065304 MISS:      27152 MSHR_MERGE:          0
cpu0->cpu0_STLB RFO          ACCESS:          0 HIT:          0 MISS:          0 MSHR_MERGE:          0
cpu0->cpu0_STLB PREFETCH     ACCESS:          0 HIT:          0 MISS:          0 MSHR_MERGE:          0
cpu0->cpu0_STLB WRITE        ACCESS:          0 HIT:          0 MISS:          0 MSHR_MERGE:          0
cpu0->cpu0_STLB TRANSLATION  ACCESS:          0 HIT:          0 MISS:          0 MSHR_MERGE:          0
cpu0->cpu0_STLB PREFETCH REQUESTED:          0 ISSUED:          0 USEFUL:          0 USELESS:          0
cpu0->cpu0_STLB AVERAGE MISS LATENCY: 198.1 cycles
cpu0->cpu0_L2C TOTAL        ACCESS:   10137632 HIT:    8845321 MISS:    1292311 MSHR_MERGE:      78195
cpu0->cpu0_L2C LOAD         ACCESS:    7776556 HIT:    6750675 MISS:    1025881 MSHR_MERGE:      12247
cpu0->cpu0_L2C RFO          ACCESS:     592107 HIT:     495816 MISS:      96291 MSHR_MERGE:          0
cpu0->cpu0_L2C PREFETCH     ACCESS:     553263 HIT:     440306 MISS:     112957 MSHR_MERGE:      65948
cpu0->cpu0_L2C WRITE        ACCESS:    1152906 HIT:    1145744 MISS:       7162 MSHR_MERGE:          0
cpu0->cpu0_L2C TRANSLATION  ACCESS:      62800 HIT:      12780 MISS:      50020 MSHR_MERGE:          0
cpu0->cpu0_L2C PREFETCH REQUESTED:     962723 ISSUED:     285520 USEFUL:       4635 USELESS:       9898
cpu0->cpu0_L2C AVERAGE MISS LATENCY: 36.71 cycles
cpu0->cpu0_L1I TOTAL        ACCESS:   14898012 HIT:    7520278 MISS:    7377734 MSHR_MERGE:    1796708
cpu0->cpu0_L1I LOAD         ACCESS:   14898012 HIT:    7520278 MISS:    7377734 MSHR_MERGE:    1796708
cpu0->cpu0_L1I RFO          ACCESS:          0 HIT:          0 MISS:          0 MSHR_MERGE:          0
cpu0->cpu0_L1I PREFETCH     ACCESS:          0 HIT:          0 MISS:          0 MSHR_MERGE:          0
cpu0->cpu0_L1I WRITE        ACCESS:          0 HIT:          0 MISS:          0 MSHR_MERGE:          0
cpu0->cpu0_L1I TRANSLATION  ACCESS:          0 HIT:          0 MISS:          0 MSHR_MERGE:          0
cpu0->cpu0_L1I PREFETCH REQUESTED:          0 ISSUED:          0 USEFUL:          0 USELESS:          0
cpu0->cpu0_L1I AVERAGE MISS LATENCY: 14.91 cycles
cpu0->cpu0_L1D TOTAL        ACCESS:   30301933 HIT:   25163265 MISS:    5138668 MSHR_MERGE:    1913677
cpu0->cpu0_L1D LOAD         ACCESS:   16525639 HIT:   13736230 MISS:    2789409 MSHR_MERGE:     593880
cpu0->cpu0_L1D RFO          ACCESS:          0 HIT:          0 MISS:          0 MSHR_MERGE:          0
cpu0->cpu0_L1D PREFETCH     ACCESS:     725271 HIT:     214799 MISS:     510472 MSHR_MERGE:     135917
cpu0->cpu0_L1D WRITE        ACCESS:   12983423 HIT:   11207563 MISS:    1775860 MSHR_MERGE:    1183753
cpu0->cpu0_L1D TRANSLATION  ACCESS:      67600 HIT:       4673 MISS:      62927 MSHR_MERGE:        127
cpu0->cpu0_L1D PREFETCH REQUESTED:     947594 ISSUED:     725271 USEFUL:      88695 USELESS:      49569
cpu0->cpu0_L1D AVERAGE MISS LATENCY: 20.07 cycles
cpu0->cpu0_ITLB TOTAL        ACCESS:   12218198 HIT:   10162224 MISS:    2055974 MSHR_MERGE:    1031544
cpu0->cpu0_ITLB LOAD         ACCESS:   12218198 HIT:   10162224 MISS:    2055974 MSHR_MERGE:    1031544
cpu0->cpu0_ITLB RFO          ACCESS:          0 HIT:          0 MISS:          0 MSHR_MERGE:          0
cpu0->cpu0_ITLB PREFETCH     ACCESS:          0 HIT:          0 MISS:          0 MSHR_MERGE:          0
cpu0->cpu0_ITLB WRITE        ACCESS:          0 HIT:          0 MISS:          0 MSHR_MERGE:          0
cpu0->cpu0_ITLB TRANSLATION  ACCESS:          0 HIT:          0 MISS:          0 MSHR_MERGE:          0
cpu0->cpu0_ITLB PREFETCH REQUESTED:          0 ISSUED:          0 USEFUL:          0 USELESS:          0
cpu0->cpu0_ITLB AVERAGE MISS LATENCY: 5.348 cycles
cpu0->cpu0_DTLB TOTAL        ACCESS:   28148252 HIT:   26693978 MISS:    1454274 MSHR_MERGE:     386248
cpu0->cpu0_DTLB LOAD         ACCESS:   28148252 HIT:   26693978 MISS:    1454274 MSHR_MERGE:     386248
cpu0->cpu0_DTLB RFO          ACCESS:          0 HIT:          0 MISS:          0 MSHR_MERGE:          0
cpu0->cpu0_DTLB PREFETCH     ACCESS:          0 HIT:          0 MISS:          0 MSHR_MERGE:          0
cpu0->cpu0_DTLB WRITE        ACCESS:          0 HIT:          0 MISS:          0 MSHR_MERGE:          0
cpu0->cpu0_DTLB TRANSLATION  ACCESS:          0 HIT:          0 MISS:          0 MSHR_MERGE:          0
cpu0->cpu0_DTLB PREFETCH REQUESTED:          0 ISSUED:          0 USEFUL:          0 USELESS:          0
cpu0->cpu0_DTLB AVERAGE MISS LATENCY: 9.654 cycles
cpu0->LLC TOTAL        ACCESS:    1380460 HIT:    1278112 MISS:     102348 MSHR_MERGE:       3748
cpu0->LLC LOAD         ACCESS:    1013634 HIT:     954487 MISS:      59147 MSHR_MERGE:        169
cpu0->LLC RFO          ACCESS:      96291 HIT:      90388 MISS:       5903 MSHR_MERGE:          0
cpu0->LLC PREFETCH     ACCESS:      47009 HIT:      28807 MISS:      18202 MSHR_MERGE:       3579
cpu0->LLC WRITE        ACCESS:     173506 HIT:     172955 MISS:        551 MSHR_MERGE:          0
cpu0->LLC TRANSLATION  ACCESS:      50020 HIT:      31475 MISS:      18545 MSHR_MERGE:          0
cpu0->LLC PREFETCH REQUESTED:          0 ISSUED:          0 USEFUL:          0 USELESS:          0
cpu0->LLC AVERAGE MISS LATENCY: 99.46 cycles

DRAM Statistics

Channel 0 RQ ROW_BUFFER_HIT:       1269
  ROW_BUFFER_MISS:      96780
  AVG DBUS CONGESTED CYCLE: 4.081
Channel 0 WQ ROW_BUFFER_HIT:        842
  ROW_BUFFER_MISS:       7030
  FULL:          0
Channel 0 REFRESHES ISSUED:       7828

==== TLB→Cache/MEM Breakdown (ROI totals across all caches) ====

DTLB
  (case)                                L1I          L1D          L2C          LLC          MEM
  STLB hit → final level                  0       501603       588334        97059         9411
---------------------------------------------------------------
  STLB miss resolved @ L1D                0           27         1452         4011         1987
  STLB miss resolved @ L2C                0          638         3236         6903         4658
  STLB miss resolved @ LLC                0          177         5145        16515        11834
  STLB miss resolved @ MEM                0            1         2486         9695        14501

ITLB
  (case)                                L1I          L1D          L2C          LLC          MEM
  STLB hit → final level             191585        47821      1356856       152874          600
---------------------------------------------------------------
  STLB miss resolved @ L1D                0            0          399          640           79
  STLB miss resolved @ L2C                2           89         1618         1394           56
  STLB miss resolved @ LLC                2           30         2071         2623          121
  STLB miss resolved @ MEM                2            0          459          652          290
[2025-09-18 04:29:35] END   suite=qualcomm_srv trace=srv728_ap (rc=0)
