[2025-09-18 07:58:28] START suite=qualcomm_srv trace=srv99_ap
CMD: ./bin/champsim -w 20000000 -i 100000000 /home/ho/itp_asplos25_AE/traces/qualcomm_srv/srv99_ap.champsimtrace.xz
[VMEM] WARNING: physical memory size is smaller than virtual memory size.

*** ChampSim Multicore Out-of-Order Simulator ***
Warmup Instructions: 20000000
Simulation Instructions: 100000000
Number of CPUs: 1
Page size: 4096

Off-chip DRAM Size: 16 GiB Channels: 1 Width: 64-bit Data Rate: 3205 MT/s
[BTB] WARNING: target of return is a lower address than the corresponding call. This is usually a problem with your trace.
[BTB] WARNING: target of return is a lower address than the corresponding call. This is usually a problem with your trace.
[BTB] WARNING: target of return is a lower address than the corresponding call. This is usually a problem with your trace.
[BTB] WARNING: target of return is a lower address than the corresponding call. This is usually a problem with your trace.
[BTB] WARNING: target of return is a lower address than the corresponding call. This is usually a problem with your trace.
[BTB] WARNING: target of return is a lower address than the corresponding call. This is usually a problem with your trace.
[BTB] WARNING: target of return is a lower address than the corresponding call. This is usually a problem with your trace.
[BTB] WARNING: target of return is a lower address than the corresponding call. This is usually a problem with your trace.
[BTB] WARNING: target of return is a lower address than the corresponding call. This is usually a problem with your trace.
[BTB] WARNING: target of return is a lower address than the corresponding call. This is usually a problem with your trace.
Heartbeat CPU 0 instructions: 10000004 cycles: 2578127 heartbeat IPC: 3.879 cumulative IPC: 3.879 (Simulation time: 00 hr 00 min 39 sec)
Warmup finished CPU 0 instructions: 20000001 cycles: 5001349 cumulative IPC: 3.999 (Simulation time: 00 hr 01 min 16 sec)
Warmup complete CPU 0 instructions: 20000001 cycles: 5001349 cumulative IPC: 3.999 (Simulation time: 00 hr 01 min 16 sec)
Heartbeat CPU 0 instructions: 20000004 cycles: 5001350 heartbeat IPC: 4.127 cumulative IPC: 3 (Simulation time: 00 hr 01 min 16 sec)
Heartbeat CPU 0 instructions: 30000005 cycles: 13126547 heartbeat IPC: 1.231 cumulative IPC: 1.231 (Simulation time: 00 hr 02 min 23 sec)
Heartbeat CPU 0 instructions: 40000005 cycles: 21209822 heartbeat IPC: 1.237 cumulative IPC: 1.234 (Simulation time: 00 hr 03 min 32 sec)
Heartbeat CPU 0 instructions: 50000009 cycles: 29338563 heartbeat IPC: 1.23 cumulative IPC: 1.233 (Simulation time: 00 hr 04 min 33 sec)
Heartbeat CPU 0 instructions: 60000009 cycles: 37410144 heartbeat IPC: 1.239 cumulative IPC: 1.234 (Simulation time: 00 hr 05 min 33 sec)
Heartbeat CPU 0 instructions: 70000009 cycles: 45472007 heartbeat IPC: 1.24 cumulative IPC: 1.235 (Simulation time: 00 hr 06 min 37 sec)
Heartbeat CPU 0 instructions: 80000013 cycles: 53553073 heartbeat IPC: 1.237 cumulative IPC: 1.236 (Simulation time: 00 hr 07 min 46 sec)
*** Reached end of trace: (0, "/home/ho/itp_asplos25_AE/traces/qualcomm_srv/srv99_ap.champsimtrace.xz")
Heartbeat CPU 0 instructions: 90000013 cycles: 61682708 heartbeat IPC: 1.23 cumulative IPC: 1.235 (Simulation time: 00 hr 08 min 55 sec)
Heartbeat CPU 0 instructions: 100000015 cycles: 69824012 heartbeat IPC: 1.228 cumulative IPC: 1.234 (Simulation time: 00 hr 10 min 04 sec)
Heartbeat CPU 0 instructions: 110000019 cycles: 77970561 heartbeat IPC: 1.228 cumulative IPC: 1.233 (Simulation time: 00 hr 11 min 10 sec)
Simulation finished CPU 0 instructions: 100000001 cycles: 81083638 cumulative IPC: 1.233 (Simulation time: 00 hr 12 min 18 sec)
Simulation complete CPU 0 instructions: 100000001 cycles: 81083638 cumulative IPC: 1.233 (Simulation time: 00 hr 12 min 18 sec)

ChampSim completed all CPUs

=== Simulation ===
CPU 0 runs /home/ho/itp_asplos25_AE/traces/qualcomm_srv/srv99_ap.champsimtrace.xz

Region of Interest Statistics

CPU 0 cumulative IPC: 1.233 instructions: 100000001 cycles: 81083638
CPU 0 Branch Prediction Accuracy: 92.76% MPKI: 12.85 Average ROB Occupancy at Mispredict: 30.57
Branch type MPKI
BRANCH_DIRECT_JUMP: 0.08581
BRANCH_INDIRECT: 0.3707
BRANCH_CONDITIONAL: 11.03
BRANCH_DIRECT_CALL: 0.4209
BRANCH_INDIRECT_CALL: 0.5445
BRANCH_RETURN: 0.406


====Backend Stall Breakdown====
ROB_STALL: 14795
LQ_STALL: 0
SQ_STALL: 40776


====ROB Stall Breakdown====

== Average ==
ADDR_TRANS: 306
REPLAY_LOAD: 123
NON_REPLAY_LOAD: 11.527709

== Total ==
ADDR_TRANS: 612
REPLAY_LOAD: 246
NON_REPLAY_LOAD: 13937

== Counts ==
ADDR_TRANS: 2
REPLAY_LOAD: 2
NON_REPLAY_LOAD: 1209

cpu0->cpu0_STLB TOTAL        ACCESS:    2116057 HIT:    2115413 MISS:        644 MSHR_MERGE:          0
cpu0->cpu0_STLB LOAD         ACCESS:    2116057 HIT:    2115413 MISS:        644 MSHR_MERGE:          0
cpu0->cpu0_STLB RFO          ACCESS:          0 HIT:          0 MISS:          0 MSHR_MERGE:          0
cpu0->cpu0_STLB PREFETCH     ACCESS:          0 HIT:          0 MISS:          0 MSHR_MERGE:          0
cpu0->cpu0_STLB WRITE        ACCESS:          0 HIT:          0 MISS:          0 MSHR_MERGE:          0
cpu0->cpu0_STLB TRANSLATION  ACCESS:          0 HIT:          0 MISS:          0 MSHR_MERGE:          0
cpu0->cpu0_STLB PREFETCH REQUESTED:          0 ISSUED:          0 USEFUL:          0 USELESS:          0
cpu0->cpu0_STLB AVERAGE MISS LATENCY: 144.6 cycles
cpu0->cpu0_L2C TOTAL        ACCESS:    9622761 HIT:    8964138 MISS:     658623 MSHR_MERGE:      37527
cpu0->cpu0_L2C LOAD         ACCESS:    7730850 HIT:    7176187 MISS:     554663 MSHR_MERGE:        448
cpu0->cpu0_L2C RFO          ACCESS:     582727 HIT:     543890 MISS:      38837 MSHR_MERGE:          0
cpu0->cpu0_L2C PREFETCH     ACCESS:     158701 HIT:     104945 MISS:      53756 MSHR_MERGE:      37079
cpu0->cpu0_L2C WRITE        ACCESS:    1149327 HIT:    1138725 MISS:      10602 MSHR_MERGE:          0
cpu0->cpu0_L2C TRANSLATION  ACCESS:       1156 HIT:        391 MISS:        765 MSHR_MERGE:          0
cpu0->cpu0_L2C PREFETCH REQUESTED:     113018 ISSUED:     105123 USEFUL:       1426 USELESS:       4796
cpu0->cpu0_L2C AVERAGE MISS LATENCY: 31.07 cycles
cpu0->cpu0_L1I TOTAL        ACCESS:   15843512 HIT:    7725107 MISS:    8118405 MSHR_MERGE:    2018955
cpu0->cpu0_L1I LOAD         ACCESS:   15843512 HIT:    7725107 MISS:    8118405 MSHR_MERGE:    2018955
cpu0->cpu0_L1I RFO          ACCESS:          0 HIT:          0 MISS:          0 MSHR_MERGE:          0
cpu0->cpu0_L1I PREFETCH     ACCESS:          0 HIT:          0 MISS:          0 MSHR_MERGE:          0
cpu0->cpu0_L1I WRITE        ACCESS:          0 HIT:          0 MISS:          0 MSHR_MERGE:          0
cpu0->cpu0_L1I TRANSLATION  ACCESS:          0 HIT:          0 MISS:          0 MSHR_MERGE:          0
cpu0->cpu0_L1I PREFETCH REQUESTED:          0 ISSUED:          0 USEFUL:          0 USELESS:          0
cpu0->cpu0_L1I AVERAGE MISS LATENCY: 13.11 cycles
cpu0->cpu0_L1D TOTAL        ACCESS:   30849215 HIT:   26883677 MISS:    3965538 MSHR_MERGE:    1696589
cpu0->cpu0_L1D LOAD         ACCESS:   16656062 HIT:   14539281 MISS:    2116781 MSHR_MERGE:     485381
cpu0->cpu0_L1D RFO          ACCESS:          0 HIT:          0 MISS:          0 MSHR_MERGE:          0
cpu0->cpu0_L1D PREFETCH     ACCESS:     332456 HIT:     240873 MISS:      91583 MSHR_MERGE:      37918
cpu0->cpu0_L1D WRITE        ACCESS:   13859398 HIT:   12103409 MISS:    1755989 MSHR_MERGE:    1173261
cpu0->cpu0_L1D TRANSLATION  ACCESS:       1299 HIT:        114 MISS:       1185 MSHR_MERGE:         29
cpu0->cpu0_L1D PREFETCH REQUESTED:     524288 ISSUED:     332456 USEFUL:      10991 USELESS:      35195
cpu0->cpu0_L1D AVERAGE MISS LATENCY: 15.54 cycles
cpu0->cpu0_ITLB TOTAL        ACCESS:   12998816 HIT:   10709624 MISS:    2289192 MSHR_MERGE:    1159459
cpu0->cpu0_ITLB LOAD         ACCESS:   12998816 HIT:   10709624 MISS:    2289192 MSHR_MERGE:    1159459
cpu0->cpu0_ITLB RFO          ACCESS:          0 HIT:          0 MISS:          0 MSHR_MERGE:          0
cpu0->cpu0_ITLB PREFETCH     ACCESS:          0 HIT:          0 MISS:          0 MSHR_MERGE:          0
cpu0->cpu0_ITLB WRITE        ACCESS:          0 HIT:          0 MISS:          0 MSHR_MERGE:          0
cpu0->cpu0_ITLB TRANSLATION  ACCESS:          0 HIT:          0 MISS:          0 MSHR_MERGE:          0
cpu0->cpu0_ITLB PREFETCH REQUESTED:          0 ISSUED:          0 USEFUL:          0 USELESS:          0
cpu0->cpu0_ITLB AVERAGE MISS LATENCY: 5.016 cycles
cpu0->cpu0_DTLB TOTAL        ACCESS:   29036357 HIT:   27707738 MISS:    1328619 MSHR_MERGE:     342295
cpu0->cpu0_DTLB LOAD         ACCESS:   29036357 HIT:   27707738 MISS:    1328619 MSHR_MERGE:     342295
cpu0->cpu0_DTLB RFO          ACCESS:          0 HIT:          0 MISS:          0 MSHR_MERGE:          0
cpu0->cpu0_DTLB PREFETCH     ACCESS:          0 HIT:          0 MISS:          0 MSHR_MERGE:          0
cpu0->cpu0_DTLB WRITE        ACCESS:          0 HIT:          0 MISS:          0 MSHR_MERGE:          0
cpu0->cpu0_DTLB TRANSLATION  ACCESS:          0 HIT:          0 MISS:          0 MSHR_MERGE:          0
cpu0->cpu0_DTLB PREFETCH REQUESTED:          0 ISSUED:          0 USEFUL:          0 USELESS:          0
cpu0->cpu0_DTLB AVERAGE MISS LATENCY: 5.095 cycles
cpu0->LLC TOTAL        ACCESS:     709109 HIT:     698103 MISS:      11006 MSHR_MERGE:        350
cpu0->LLC LOAD         ACCESS:     554215 HIT:     546199 MISS:       8016 MSHR_MERGE:         62
cpu0->LLC RFO          ACCESS:      38837 HIT:      38803 MISS:         34 MSHR_MERGE:          0
cpu0->LLC PREFETCH     ACCESS:      16677 HIT:      13933 MISS:       2744 MSHR_MERGE:        288
cpu0->LLC WRITE        ACCESS:      98615 HIT:      98609 MISS:          6 MSHR_MERGE:          0
cpu0->LLC TRANSLATION  ACCESS:        765 HIT:        559 MISS:        206 MSHR_MERGE:          0
cpu0->LLC PREFETCH REQUESTED:          0 ISSUED:          0 USEFUL:          0 USELESS:          0
cpu0->LLC AVERAGE MISS LATENCY: 113.4 cycles

DRAM Statistics

Channel 0 RQ ROW_BUFFER_HIT:         99
  ROW_BUFFER_MISS:      10551
  AVG DBUS CONGESTED CYCLE: 2.986
Channel 0 WQ ROW_BUFFER_HIT:          0
  ROW_BUFFER_MISS:         11
  FULL:          0
Channel 0 REFRESHES ISSUED:       6757

==== TLB→Cache/MEM Breakdown (ROI totals across all caches) ====

DTLB
  (case)                                L1I          L1D          L2C          LLC          MEM
  STLB hit → final level                  0       538990       544177        60403          623
---------------------------------------------------------------
  STLB miss resolved @ L1D                0            3           47           53           24
  STLB miss resolved @ L2C                0           44          238          185           26
  STLB miss resolved @ LLC                0           25          228          368           42
  STLB miss resolved @ MEM                0            0           48          109          112

ITLB
  (case)                                L1I          L1D          L2C          LLC          MEM
  STLB hit → final level             197916        46922      1576887       100427           12
---------------------------------------------------------------
  STLB miss resolved @ L1D                0            0            0            5            4
  STLB miss resolved @ L2C                0            0            0            0            0
  STLB miss resolved @ LLC                0            5            0           25            4
  STLB miss resolved @ MEM                0            0            0           10           16
[2025-09-18 08:10:47] END   suite=qualcomm_srv trace=srv99_ap (rc=0)
