[2025-09-17 05:39:35] START suite=qualcomm_srv trace=srv108_ap
CMD: ./bin/champsim -w 20000000 -i 100000000 /home/ho/itp_asplos25_AE/traces/qualcomm_srv/srv108_ap.champsimtrace.xz
[VMEM] WARNING: physical memory size is smaller than virtual memory size.

*** ChampSim Multicore Out-of-Order Simulator ***
Warmup Instructions: 20000000
Simulation Instructions: 100000000
Number of CPUs: 1
Page size: 4096

Off-chip DRAM Size: 16 GiB Channels: 1 Width: 64-bit Data Rate: 3205 MT/s
Heartbeat CPU 0 instructions: 10000004 cycles: 2654176 heartbeat IPC: 3.768 cumulative IPC: 3.768 (Simulation time: 00 hr 00 min 37 sec)
[BTB] WARNING: target of return is a lower address than the corresponding call. This is usually a problem with your trace.
[BTB] WARNING: target of return is a lower address than the corresponding call. This is usually a problem with your trace.
[BTB] WARNING: target of return is a lower address than the corresponding call. This is usually a problem with your trace.
[BTB] WARNING: target of return is a lower address than the corresponding call. This is usually a problem with your trace.
[BTB] WARNING: target of return is a lower address than the corresponding call. This is usually a problem with your trace.
[BTB] WARNING: target of return is a lower address than the corresponding call. This is usually a problem with your trace.
[BTB] WARNING: target of return is a lower address than the corresponding call. This is usually a problem with your trace.
[BTB] WARNING: target of return is a lower address than the corresponding call. This is usually a problem with your trace.
[BTB] WARNING: target of return is a lower address than the corresponding call. This is usually a problem with your trace.
[BTB] WARNING: target of return is a lower address than the corresponding call. This is usually a problem with your trace.
Warmup finished CPU 0 instructions: 20000000 cycles: 5128162 cumulative IPC: 3.9 (Simulation time: 00 hr 01 min 11 sec)
Warmup complete CPU 0 instructions: 20000000 cycles: 5128162 cumulative IPC: 3.9 (Simulation time: 00 hr 01 min 11 sec)
Heartbeat CPU 0 instructions: 20000004 cycles: 5128163 heartbeat IPC: 4.042 cumulative IPC: 4 (Simulation time: 00 hr 01 min 11 sec)
Heartbeat CPU 0 instructions: 30000007 cycles: 12085646 heartbeat IPC: 1.437 cumulative IPC: 1.437 (Simulation time: 00 hr 02 min 11 sec)
Heartbeat CPU 0 instructions: 40000008 cycles: 18996032 heartbeat IPC: 1.447 cumulative IPC: 1.442 (Simulation time: 00 hr 03 min 10 sec)
Heartbeat CPU 0 instructions: 50000011 cycles: 26436060 heartbeat IPC: 1.344 cumulative IPC: 1.408 (Simulation time: 00 hr 04 min 10 sec)
Heartbeat CPU 0 instructions: 60000013 cycles: 33391815 heartbeat IPC: 1.438 cumulative IPC: 1.415 (Simulation time: 00 hr 05 min 10 sec)
Heartbeat CPU 0 instructions: 70000013 cycles: 40443584 heartbeat IPC: 1.418 cumulative IPC: 1.416 (Simulation time: 00 hr 06 min 12 sec)
Heartbeat CPU 0 instructions: 80000014 cycles: 47622341 heartbeat IPC: 1.393 cumulative IPC: 1.412 (Simulation time: 00 hr 07 min 16 sec)
Heartbeat CPU 0 instructions: 90000014 cycles: 54591022 heartbeat IPC: 1.435 cumulative IPC: 1.415 (Simulation time: 00 hr 08 min 16 sec)
Heartbeat CPU 0 instructions: 100000015 cycles: 62017136 heartbeat IPC: 1.347 cumulative IPC: 1.406 (Simulation time: 00 hr 09 min 19 sec)
*** Reached end of trace: (0, "/home/ho/itp_asplos25_AE/traces/qualcomm_srv/srv108_ap.champsimtrace.xz")
Heartbeat CPU 0 instructions: 110000019 cycles: 69110280 heartbeat IPC: 1.41 cumulative IPC: 1.407 (Simulation time: 00 hr 10 min 21 sec)
Simulation finished CPU 0 instructions: 100000002 cycles: 71059149 cumulative IPC: 1.407 (Simulation time: 00 hr 11 min 24 sec)
Simulation complete CPU 0 instructions: 100000002 cycles: 71059149 cumulative IPC: 1.407 (Simulation time: 00 hr 11 min 24 sec)

ChampSim completed all CPUs

=== Simulation ===
CPU 0 runs /home/ho/itp_asplos25_AE/traces/qualcomm_srv/srv108_ap.champsimtrace.xz

Region of Interest Statistics

CPU 0 cumulative IPC: 1.407 instructions: 100000002 cycles: 71059149
CPU 0 Branch Prediction Accuracy: 93.81% MPKI: 11.54 Average ROB Occupancy at Mispredict: 33.65
Branch type MPKI
BRANCH_DIRECT_JUMP: 0.00283
BRANCH_INDIRECT: 0.4247
BRANCH_CONDITIONAL: 10.89
BRANCH_DIRECT_CALL: 0.00365
BRANCH_INDIRECT_CALL: 0.2093
BRANCH_RETURN: 0.0046


====Backend Stall Breakdown====
ROB_STALL: 800404
LQ_STALL: 0
SQ_STALL: 3119


====ROB Stall Breakdown====

== Average ==
ADDR_TRANS: 117.13355
REPLAY_LOAD: 72.74348
NON_REPLAY_LOAD: 33.477535

== Total ==
ADDR_TRANS: 35960
REPLAY_LOAD: 33462
NON_REPLAY_LOAD: 730982

== Counts ==
ADDR_TRANS: 307
REPLAY_LOAD: 460
NON_REPLAY_LOAD: 21835

cpu0->cpu0_STLB TOTAL        ACCESS:    1799297 HIT:    1793391 MISS:       5906 MSHR_MERGE:          0
cpu0->cpu0_STLB LOAD         ACCESS:    1799297 HIT:    1793391 MISS:       5906 MSHR_MERGE:          0
cpu0->cpu0_STLB RFO          ACCESS:          0 HIT:          0 MISS:          0 MSHR_MERGE:          0
cpu0->cpu0_STLB PREFETCH     ACCESS:          0 HIT:          0 MISS:          0 MSHR_MERGE:          0
cpu0->cpu0_STLB WRITE        ACCESS:          0 HIT:          0 MISS:          0 MSHR_MERGE:          0
cpu0->cpu0_STLB TRANSLATION  ACCESS:          0 HIT:          0 MISS:          0 MSHR_MERGE:          0
cpu0->cpu0_STLB PREFETCH REQUESTED:          0 ISSUED:          0 USEFUL:          0 USELESS:          0
cpu0->cpu0_STLB AVERAGE MISS LATENCY: 144.1 cycles
cpu0->cpu0_L2C TOTAL        ACCESS:    7988888 HIT:    7573969 MISS:     414919 MSHR_MERGE:          0
cpu0->cpu0_L2C LOAD         ACCESS:    7336397 HIT:    6982022 MISS:     354375 MSHR_MERGE:          0
cpu0->cpu0_L2C RFO          ACCESS:     177799 HIT:     132852 MISS:      44947 MSHR_MERGE:          0
cpu0->cpu0_L2C PREFETCH     ACCESS:          0 HIT:          0 MISS:          0 MSHR_MERGE:          0
cpu0->cpu0_L2C WRITE        ACCESS:     463255 HIT:     458295 MISS:       4960 MSHR_MERGE:          0
cpu0->cpu0_L2C TRANSLATION  ACCESS:      11437 HIT:        800 MISS:      10637 MSHR_MERGE:          0
cpu0->cpu0_L2C PREFETCH REQUESTED:          0 ISSUED:          0 USEFUL:          0 USELESS:          0
cpu0->cpu0_L2C AVERAGE MISS LATENCY: 39.07 cycles
cpu0->cpu0_L1I TOTAL        ACCESS:   15684014 HIT:    7149170 MISS:    8534844 MSHR_MERGE:    2227904
cpu0->cpu0_L1I LOAD         ACCESS:   15684014 HIT:    7149170 MISS:    8534844 MSHR_MERGE:    2227904
cpu0->cpu0_L1I RFO          ACCESS:          0 HIT:          0 MISS:          0 MSHR_MERGE:          0
cpu0->cpu0_L1I PREFETCH     ACCESS:          0 HIT:          0 MISS:          0 MSHR_MERGE:          0
cpu0->cpu0_L1I WRITE        ACCESS:          0 HIT:          0 MISS:          0 MSHR_MERGE:          0
cpu0->cpu0_L1I TRANSLATION  ACCESS:          0 HIT:          0 MISS:          0 MSHR_MERGE:          0
cpu0->cpu0_L1I PREFETCH REQUESTED:          0 ISSUED:          0 USEFUL:          0 USELESS:          0
cpu0->cpu0_L1I AVERAGE MISS LATENCY: 11.55 cycles
cpu0->cpu0_L1D TOTAL        ACCESS:   27362836 HIT:   25492736 MISS:    1870100 MSHR_MERGE:     651403
cpu0->cpu0_L1D LOAD         ACCESS:   15000953 HIT:   13587918 MISS:    1413035 MSHR_MERGE:     383575
cpu0->cpu0_L1D RFO          ACCESS:          0 HIT:          0 MISS:          0 MSHR_MERGE:          0
cpu0->cpu0_L1D PREFETCH     ACCESS:          0 HIT:          0 MISS:          0 MSHR_MERGE:          0
cpu0->cpu0_L1D WRITE        ACCESS:   12349845 HIT:   11904259 MISS:     445586 MSHR_MERGE:     267786
cpu0->cpu0_L1D TRANSLATION  ACCESS:      12038 HIT:        559 MISS:      11479 MSHR_MERGE:         42
cpu0->cpu0_L1D PREFETCH REQUESTED:          0 ISSUED:          0 USEFUL:          0 USELESS:          0
cpu0->cpu0_L1D AVERAGE MISS LATENCY: 23.68 cycles
cpu0->cpu0_ITLB TOTAL        ACCESS:   13052946 HIT:   11066610 MISS:    1986336 MSHR_MERGE:    1029417
cpu0->cpu0_ITLB LOAD         ACCESS:   13052946 HIT:   11066610 MISS:    1986336 MSHR_MERGE:    1029417
cpu0->cpu0_ITLB RFO          ACCESS:          0 HIT:          0 MISS:          0 MSHR_MERGE:          0
cpu0->cpu0_ITLB PREFETCH     ACCESS:          0 HIT:          0 MISS:          0 MSHR_MERGE:          0
cpu0->cpu0_ITLB WRITE        ACCESS:          0 HIT:          0 MISS:          0 MSHR_MERGE:          0
cpu0->cpu0_ITLB TRANSLATION  ACCESS:          0 HIT:          0 MISS:          0 MSHR_MERGE:          0
cpu0->cpu0_ITLB PREFETCH REQUESTED:          0 ISSUED:          0 USEFUL:          0 USELESS:          0
cpu0->cpu0_ITLB AVERAGE MISS LATENCY: 5.076 cycles
cpu0->cpu0_DTLB TOTAL        ACCESS:   25788062 HIT:   24596367 MISS:    1191695 MSHR_MERGE:     349317
cpu0->cpu0_DTLB LOAD         ACCESS:   25788062 HIT:   24596367 MISS:    1191695 MSHR_MERGE:     349317
cpu0->cpu0_DTLB RFO          ACCESS:          0 HIT:          0 MISS:          0 MSHR_MERGE:          0
cpu0->cpu0_DTLB PREFETCH     ACCESS:          0 HIT:          0 MISS:          0 MSHR_MERGE:          0
cpu0->cpu0_DTLB WRITE        ACCESS:          0 HIT:          0 MISS:          0 MSHR_MERGE:          0
cpu0->cpu0_DTLB TRANSLATION  ACCESS:          0 HIT:          0 MISS:          0 MSHR_MERGE:          0
cpu0->cpu0_DTLB PREFETCH REQUESTED:          0 ISSUED:          0 USEFUL:          0 USELESS:          0
cpu0->cpu0_DTLB AVERAGE MISS LATENCY: 5.926 cycles
cpu0->LLC TOTAL        ACCESS:     603367 HIT:     556523 MISS:      46844 MSHR_MERGE:          0
cpu0->LLC LOAD         ACCESS:     354374 HIT:     320683 MISS:      33691 MSHR_MERGE:          0
cpu0->LLC RFO          ACCESS:      44947 HIT:      36211 MISS:       8736 MSHR_MERGE:          0
cpu0->LLC PREFETCH     ACCESS:          0 HIT:          0 MISS:          0 MSHR_MERGE:          0
cpu0->LLC WRITE        ACCESS:     193409 HIT:     193172 MISS:        237 MSHR_MERGE:          0
cpu0->LLC TRANSLATION  ACCESS:      10637 HIT:       6457 MISS:       4180 MSHR_MERGE:          0
cpu0->LLC PREFETCH REQUESTED:          0 ISSUED:          0 USEFUL:          0 USELESS:          0
cpu0->LLC AVERAGE MISS LATENCY: 87.75 cycles

DRAM Statistics

Channel 0 RQ ROW_BUFFER_HIT:        928
  ROW_BUFFER_MISS:      45672
  AVG DBUS CONGESTED CYCLE: 7.209
Channel 0 WQ ROW_BUFFER_HIT:       2871
  ROW_BUFFER_MISS:      20393
  FULL:          0
Channel 0 REFRESHES ISSUED:       5921

==== TLB→Cache/MEM Breakdown (ROI totals across all caches) ====

DTLB
  (case)                                L1I          L1D          L2C          LLC          MEM
  STLB hit → final level                  0       645180       290448        81653         7626
---------------------------------------------------------------
  STLB miss resolved @ L1D                0            3           33          518          255
  STLB miss resolved @ L2C                0            5           81         1079          267
  STLB miss resolved @ LLC                0           57          182         5117          829
  STLB miss resolved @ MEM                0            3          115         3274         2006

ITLB
  (case)                                L1I          L1D          L2C          LLC          MEM
  STLB hit → final level             145913        50679      1469792        20044         1795
---------------------------------------------------------------
  STLB miss resolved @ L1D                0            2            4          256          117
  STLB miss resolved @ L2C                0            0            0          218          118
  STLB miss resolved @ LLC                0           78           19          998          321
  STLB miss resolved @ MEM                0            1           14          768          610
[2025-09-17 05:51:00] END   suite=qualcomm_srv trace=srv108_ap (rc=0)
