[2025-09-17 08:30:03] START suite=qualcomm_srv trace=srv192_ap
CMD: ./bin/champsim -w 20000000 -i 100000000 /home/ho/itp_asplos25_AE/traces/qualcomm_srv/srv192_ap.champsimtrace.xz
[VMEM] WARNING: physical memory size is smaller than virtual memory size.

*** ChampSim Multicore Out-of-Order Simulator ***
Warmup Instructions: 20000000
Simulation Instructions: 100000000
Number of CPUs: 1
Page size: 4096

Off-chip DRAM Size: 16 GiB Channels: 1 Width: 64-bit Data Rate: 3205 MT/s
[BTB] WARNING: target of return is a lower address than the corresponding call. This is usually a problem with your trace.
[BTB] WARNING: target of return is a lower address than the corresponding call. This is usually a problem with your trace.
[BTB] WARNING: target of return is a lower address than the corresponding call. This is usually a problem with your trace.
[BTB] WARNING: target of return is a lower address than the corresponding call. This is usually a problem with your trace.
[BTB] WARNING: target of return is a lower address than the corresponding call. This is usually a problem with your trace.
[BTB] WARNING: target of return is a lower address than the corresponding call. This is usually a problem with your trace.
[BTB] WARNING: target of return is a lower address than the corresponding call. This is usually a problem with your trace.
[BTB] WARNING: target of return is a lower address than the corresponding call. This is usually a problem with your trace.
[BTB] WARNING: target of return is a lower address than the corresponding call. This is usually a problem with your trace.
[BTB] WARNING: target of return is a lower address than the corresponding call. This is usually a problem with your trace.
Heartbeat CPU 0 instructions: 10000001 cycles: 2613911 heartbeat IPC: 3.826 cumulative IPC: 3.826 (Simulation time: 00 hr 00 min 41 sec)
Heartbeat CPU 0 instructions: 20000002 cycles: 5058825 heartbeat IPC: 4.09 cumulative IPC: 3.953 (Simulation time: 00 hr 01 min 20 sec)
Warmup finished CPU 0 instructions: 20000002 cycles: 5058825 cumulative IPC: 3.953 (Simulation time: 00 hr 01 min 20 sec)
Warmup complete CPU 0 instructions: 20000002 cycles: 5058825 cumulative IPC: 3.953 (Simulation time: 00 hr 01 min 20 sec)
Heartbeat CPU 0 instructions: 30000002 cycles: 14245411 heartbeat IPC: 1.089 cumulative IPC: 1.089 (Simulation time: 00 hr 02 min 30 sec)
Heartbeat CPU 0 instructions: 40000006 cycles: 23413411 heartbeat IPC: 1.091 cumulative IPC: 1.09 (Simulation time: 00 hr 03 min 42 sec)
Heartbeat CPU 0 instructions: 50000008 cycles: 32517740 heartbeat IPC: 1.098 cumulative IPC: 1.093 (Simulation time: 00 hr 04 min 55 sec)
Heartbeat CPU 0 instructions: 60000011 cycles: 41680124 heartbeat IPC: 1.091 cumulative IPC: 1.092 (Simulation time: 00 hr 06 min 09 sec)
Heartbeat CPU 0 instructions: 70000011 cycles: 50923025 heartbeat IPC: 1.082 cumulative IPC: 1.09 (Simulation time: 00 hr 07 min 24 sec)
Heartbeat CPU 0 instructions: 80000011 cycles: 60119520 heartbeat IPC: 1.087 cumulative IPC: 1.09 (Simulation time: 00 hr 08 min 36 sec)
Heartbeat CPU 0 instructions: 90000015 cycles: 69327793 heartbeat IPC: 1.086 cumulative IPC: 1.089 (Simulation time: 00 hr 09 min 43 sec)
Heartbeat CPU 0 instructions: 100000017 cycles: 78433836 heartbeat IPC: 1.098 cumulative IPC: 1.09 (Simulation time: 00 hr 10 min 54 sec)
*** Reached end of trace: (0, "/home/ho/itp_asplos25_AE/traces/qualcomm_srv/srv192_ap.champsimtrace.xz")
Heartbeat CPU 0 instructions: 110000019 cycles: 87610165 heartbeat IPC: 1.09 cumulative IPC: 1.09 (Simulation time: 00 hr 12 min 03 sec)
Simulation finished CPU 0 instructions: 100000002 cycles: 91796898 cumulative IPC: 1.089 (Simulation time: 00 hr 13 min 15 sec)
Simulation complete CPU 0 instructions: 100000002 cycles: 91796898 cumulative IPC: 1.089 (Simulation time: 00 hr 13 min 15 sec)

ChampSim completed all CPUs

=== Simulation ===
CPU 0 runs /home/ho/itp_asplos25_AE/traces/qualcomm_srv/srv192_ap.champsimtrace.xz

Region of Interest Statistics

CPU 0 cumulative IPC: 1.089 instructions: 100000002 cycles: 91796898
CPU 0 Branch Prediction Accuracy: 90.9% MPKI: 16.01 Average ROB Occupancy at Mispredict: 25.43
Branch type MPKI
BRANCH_DIRECT_JUMP: 0.3791
BRANCH_INDIRECT: 0.4161
BRANCH_CONDITIONAL: 13.06
BRANCH_DIRECT_CALL: 0.9283
BRANCH_INDIRECT_CALL: 0.6035
BRANCH_RETURN: 0.6213


====Backend Stall Breakdown====
ROB_STALL: 90200
LQ_STALL: 0
SQ_STALL: 487692


====ROB Stall Breakdown====

== Average ==
ADDR_TRANS: 115.97222
REPLAY_LOAD: 94.886795
NON_REPLAY_LOAD: 24.998766

== Total ==
ADDR_TRANS: 4175
REPLAY_LOAD: 5029
NON_REPLAY_LOAD: 80996

== Counts ==
ADDR_TRANS: 36
REPLAY_LOAD: 53
NON_REPLAY_LOAD: 3240

cpu0->cpu0_STLB TOTAL        ACCESS:    1868058 HIT:    1863989 MISS:       4069 MSHR_MERGE:          0
cpu0->cpu0_STLB LOAD         ACCESS:    1868058 HIT:    1863989 MISS:       4069 MSHR_MERGE:          0
cpu0->cpu0_STLB RFO          ACCESS:          0 HIT:          0 MISS:          0 MSHR_MERGE:          0
cpu0->cpu0_STLB PREFETCH     ACCESS:          0 HIT:          0 MISS:          0 MSHR_MERGE:          0
cpu0->cpu0_STLB WRITE        ACCESS:          0 HIT:          0 MISS:          0 MSHR_MERGE:          0
cpu0->cpu0_STLB TRANSLATION  ACCESS:          0 HIT:          0 MISS:          0 MSHR_MERGE:          0
cpu0->cpu0_STLB PREFETCH REQUESTED:          0 ISSUED:          0 USEFUL:          0 USELESS:          0
cpu0->cpu0_STLB AVERAGE MISS LATENCY: 221.8 cycles
cpu0->cpu0_L2C TOTAL        ACCESS:    8320104 HIT:    7122350 MISS:    1197754 MSHR_MERGE:          0
cpu0->cpu0_L2C LOAD         ACCESS:    6770125 HIT:    5768984 MISS:    1001141 MSHR_MERGE:          0
cpu0->cpu0_L2C RFO          ACCESS:     554567 HIT:     384052 MISS:     170515 MSHR_MERGE:          0
cpu0->cpu0_L2C PREFETCH     ACCESS:          0 HIT:          0 MISS:          0 MSHR_MERGE:          0
cpu0->cpu0_L2C WRITE        ACCESS:     987955 HIT:     968791 MISS:      19164 MSHR_MERGE:          0
cpu0->cpu0_L2C TRANSLATION  ACCESS:       7457 HIT:        523 MISS:       6934 MSHR_MERGE:          0
cpu0->cpu0_L2C PREFETCH REQUESTED:          0 ISSUED:          0 USEFUL:          0 USELESS:          0
cpu0->cpu0_L2C AVERAGE MISS LATENCY: 34.26 cycles
cpu0->cpu0_L1I TOTAL        ACCESS:   15029328 HIT:    8034137 MISS:    6995191 MSHR_MERGE:    1662663
cpu0->cpu0_L1I LOAD         ACCESS:   15029328 HIT:    8034137 MISS:    6995191 MSHR_MERGE:    1662663
cpu0->cpu0_L1I RFO          ACCESS:          0 HIT:          0 MISS:          0 MSHR_MERGE:          0
cpu0->cpu0_L1I PREFETCH     ACCESS:          0 HIT:          0 MISS:          0 MSHR_MERGE:          0
cpu0->cpu0_L1I WRITE        ACCESS:          0 HIT:          0 MISS:          0 MSHR_MERGE:          0
cpu0->cpu0_L1I TRANSLATION  ACCESS:          0 HIT:          0 MISS:          0 MSHR_MERGE:          0
cpu0->cpu0_L1I PREFETCH REQUESTED:          0 ISSUED:          0 USEFUL:          0 USELESS:          0
cpu0->cpu0_L1I AVERAGE MISS LATENCY: 15.39 cycles
cpu0->cpu0_L1D TOTAL        ACCESS:   30490679 HIT:   27006195 MISS:    3484484 MSHR_MERGE:    1484860
cpu0->cpu0_L1D LOAD         ACCESS:   17120186 HIT:   15305128 MISS:    1815058 MSHR_MERGE:     377459
cpu0->cpu0_L1D RFO          ACCESS:          0 HIT:          0 MISS:          0 MSHR_MERGE:          0
cpu0->cpu0_L1D PREFETCH     ACCESS:          0 HIT:          0 MISS:          0 MSHR_MERGE:          0
cpu0->cpu0_L1D WRITE        ACCESS:   13362199 HIT:   11700339 MISS:    1661860 MSHR_MERGE:    1107292
cpu0->cpu0_L1D TRANSLATION  ACCESS:       8294 HIT:        728 MISS:       7566 MSHR_MERGE:        109
cpu0->cpu0_L1D PREFETCH REQUESTED:          0 ISSUED:          0 USEFUL:          0 USELESS:          0
cpu0->cpu0_L1D AVERAGE MISS LATENCY: 21.72 cycles
cpu0->cpu0_ITLB TOTAL        ACCESS:   12465726 HIT:   10550576 MISS:    1915150 MSHR_MERGE:     960903
cpu0->cpu0_ITLB LOAD         ACCESS:   12465726 HIT:   10550576 MISS:    1915150 MSHR_MERGE:     960903
cpu0->cpu0_ITLB RFO          ACCESS:          0 HIT:          0 MISS:          0 MSHR_MERGE:          0
cpu0->cpu0_ITLB PREFETCH     ACCESS:          0 HIT:          0 MISS:          0 MSHR_MERGE:          0
cpu0->cpu0_ITLB WRITE        ACCESS:          0 HIT:          0 MISS:          0 MSHR_MERGE:          0
cpu0->cpu0_ITLB TRANSLATION  ACCESS:          0 HIT:          0 MISS:          0 MSHR_MERGE:          0
cpu0->cpu0_ITLB PREFETCH REQUESTED:          0 ISSUED:          0 USEFUL:          0 USELESS:          0
cpu0->cpu0_ITLB AVERAGE MISS LATENCY: 5.08 cycles
cpu0->cpu0_DTLB TOTAL        ACCESS:   28946954 HIT:   27718188 MISS:    1228766 MSHR_MERGE:     314955
cpu0->cpu0_DTLB LOAD         ACCESS:   28946954 HIT:   27718188 MISS:    1228766 MSHR_MERGE:     314955
cpu0->cpu0_DTLB RFO          ACCESS:          0 HIT:          0 MISS:          0 MSHR_MERGE:          0
cpu0->cpu0_DTLB PREFETCH     ACCESS:          0 HIT:          0 MISS:          0 MSHR_MERGE:          0
cpu0->cpu0_DTLB WRITE        ACCESS:          0 HIT:          0 MISS:          0 MSHR_MERGE:          0
cpu0->cpu0_DTLB TRANSLATION  ACCESS:          0 HIT:          0 MISS:          0 MSHR_MERGE:          0
cpu0->cpu0_DTLB PREFETCH REQUESTED:          0 ISSUED:          0 USEFUL:          0 USELESS:          0
cpu0->cpu0_DTLB AVERAGE MISS LATENCY: 5.912 cycles
cpu0->LLC TOTAL        ACCESS:    1447204 HIT:    1397775 MISS:      49429 MSHR_MERGE:          0
cpu0->LLC LOAD         ACCESS:    1001141 HIT:     982215 MISS:      18926 MSHR_MERGE:          0
cpu0->LLC RFO          ACCESS:     170515 HIT:     144161 MISS:      26354 MSHR_MERGE:          0
cpu0->LLC PREFETCH     ACCESS:          0 HIT:          0 MISS:          0 MSHR_MERGE:          0
cpu0->LLC WRITE        ACCESS:     268614 HIT:     268451 MISS:        163 MSHR_MERGE:          0
cpu0->LLC TRANSLATION  ACCESS:       6934 HIT:       2948 MISS:       3986 MSHR_MERGE:          0
cpu0->LLC PREFETCH REQUESTED:          0 ISSUED:          0 USEFUL:          0 USELESS:          0
cpu0->LLC AVERAGE MISS LATENCY: 117.1 cycles

DRAM Statistics

Channel 0 RQ ROW_BUFFER_HIT:       2988
  ROW_BUFFER_MISS:      46277
  AVG DBUS CONGESTED CYCLE: 3.528
Channel 0 WQ ROW_BUFFER_HIT:        874
  ROW_BUFFER_MISS:      19427
  FULL:          0
Channel 0 REFRESHES ISSUED:       7650

==== TLB→Cache/MEM Breakdown (ROI totals across all caches) ====

DTLB
  (case)                                L1I          L1D          L2C          LLC          MEM
  STLB hit → final level                  0       517805       429492        88670         2274
---------------------------------------------------------------
  STLB miss resolved @ L1D                0            5           49          403          246
  STLB miss resolved @ L2C                0           50           86          287           81
  STLB miss resolved @ LLC                0           66          188         1630          655
  STLB miss resolved @ MEM                0            3          242         2328         2163

ITLB
  (case)                                L1I          L1D          L2C          LLC          MEM
  STLB hit → final level             163539        48844      1265188       143237          356
---------------------------------------------------------------
  STLB miss resolved @ L1D                0            0           53           99           36
  STLB miss resolved @ L2C                0           42           34           50           15
  STLB miss resolved @ LLC                0           43          100          370           60
  STLB miss resolved @ MEM                0            1           50          231          118
[2025-09-17 08:43:19] END   suite=qualcomm_srv trace=srv192_ap (rc=0)
