[2025-09-16 23:30:30] START suite=qualcomm_srv trace=srv246_ap
CMD: ./bin/champsim -w 20000000 -i 100000000 /home/ho/itp_asplos25_AE/traces/qualcomm_srv/srv246_ap.champsimtrace.xz
[VMEM] WARNING: physical memory size is smaller than virtual memory size.

*** ChampSim Multicore Out-of-Order Simulator ***
Warmup Instructions: 20000000
Simulation Instructions: 100000000
Number of CPUs: 1
Page size: 4096

Off-chip DRAM Size: 16 GiB Channels: 1 Width: 64-bit Data Rate: 3205 MT/s
[BTB] WARNING: target of return is a lower address than the corresponding call. This is usually a problem with your trace.
[BTB] WARNING: target of return is a lower address than the corresponding call. This is usually a problem with your trace.
[BTB] WARNING: target of return is a lower address than the corresponding call. This is usually a problem with your trace.
[BTB] WARNING: target of return is a lower address than the corresponding call. This is usually a problem with your trace.
[BTB] WARNING: target of return is a lower address than the corresponding call. This is usually a problem with your trace.
[BTB] WARNING: target of return is a lower address than the corresponding call. This is usually a problem with your trace.
[BTB] WARNING: target of return is a lower address than the corresponding call. This is usually a problem with your trace.
[BTB] WARNING: target of return is a lower address than the corresponding call. This is usually a problem with your trace.
[BTB] WARNING: target of return is a lower address than the corresponding call. This is usually a problem with your trace.
[BTB] WARNING: target of return is a lower address than the corresponding call. This is usually a problem with your trace.
Heartbeat CPU 0 instructions: 10000001 cycles: 2571485 heartbeat IPC: 3.889 cumulative IPC: 3.889 (Simulation time: 00 hr 00 min 33 sec)
Heartbeat CPU 0 instructions: 20000003 cycles: 4987959 heartbeat IPC: 4.138 cumulative IPC: 4.01 (Simulation time: 00 hr 00 min 53 sec)
Warmup finished CPU 0 instructions: 20000003 cycles: 4987959 cumulative IPC: 4.01 (Simulation time: 00 hr 00 min 53 sec)
Warmup complete CPU 0 instructions: 20000003 cycles: 4987959 cumulative IPC: 4.01 (Simulation time: 00 hr 00 min 53 sec)
Heartbeat CPU 0 instructions: 30000003 cycles: 13214654 heartbeat IPC: 1.216 cumulative IPC: 1.216 (Simulation time: 00 hr 01 min 30 sec)
Heartbeat CPU 0 instructions: 40000007 cycles: 21407344 heartbeat IPC: 1.221 cumulative IPC: 1.218 (Simulation time: 00 hr 02 min 06 sec)
Heartbeat CPU 0 instructions: 50000007 cycles: 29618701 heartbeat IPC: 1.218 cumulative IPC: 1.218 (Simulation time: 00 hr 02 min 41 sec)
Heartbeat CPU 0 instructions: 60000007 cycles: 37788783 heartbeat IPC: 1.224 cumulative IPC: 1.219 (Simulation time: 00 hr 03 min 19 sec)
Heartbeat CPU 0 instructions: 70000009 cycles: 45993015 heartbeat IPC: 1.219 cumulative IPC: 1.219 (Simulation time: 00 hr 03 min 55 sec)
Heartbeat CPU 0 instructions: 80000012 cycles: 54212185 heartbeat IPC: 1.217 cumulative IPC: 1.219 (Simulation time: 00 hr 04 min 47 sec)
*** Reached end of trace: (0, "/home/ho/itp_asplos25_AE/traces/qualcomm_srv/srv246_ap.champsimtrace.xz")
Heartbeat CPU 0 instructions: 90000012 cycles: 62492633 heartbeat IPC: 1.208 cumulative IPC: 1.217 (Simulation time: 00 hr 05 min 50 sec)
Heartbeat CPU 0 instructions: 100000014 cycles: 70798333 heartbeat IPC: 1.204 cumulative IPC: 1.216 (Simulation time: 00 hr 06 min 51 sec)
Heartbeat CPU 0 instructions: 110000015 cycles: 79105791 heartbeat IPC: 1.204 cumulative IPC: 1.214 (Simulation time: 00 hr 07 min 58 sec)
Simulation finished CPU 0 instructions: 100000002 cycles: 82413459 cumulative IPC: 1.213 (Simulation time: 00 hr 08 min 58 sec)
Simulation complete CPU 0 instructions: 100000002 cycles: 82413459 cumulative IPC: 1.213 (Simulation time: 00 hr 08 min 58 sec)

ChampSim completed all CPUs

=== Simulation ===
CPU 0 runs /home/ho/itp_asplos25_AE/traces/qualcomm_srv/srv246_ap.champsimtrace.xz

Region of Interest Statistics

CPU 0 cumulative IPC: 1.213 instructions: 100000002 cycles: 82413459
CPU 0 Branch Prediction Accuracy: 92.57% MPKI: 13.18 Average ROB Occupancy at Mispredict: 30.64
Branch type MPKI
BRANCH_DIRECT_JUMP: 0.08491
BRANCH_INDIRECT: 0.3681
BRANCH_CONDITIONAL: 11.37
BRANCH_DIRECT_CALL: 0.4191
BRANCH_INDIRECT_CALL: 0.5424
BRANCH_RETURN: 0.4043


====Backend Stall Breakdown====
ROB_STALL: 23755
LQ_STALL: 0
SQ_STALL: 52302


====ROB Stall Breakdown====

== Average ==
ADDR_TRANS: 304
REPLAY_LOAD: 83
NON_REPLAY_LOAD: 7.572262

== Total ==
ADDR_TRANS: 304
REPLAY_LOAD: 83
NON_REPLAY_LOAD: 23368

== Counts ==
ADDR_TRANS: 1
REPLAY_LOAD: 1
NON_REPLAY_LOAD: 3086

cpu0->cpu0_STLB TOTAL        ACCESS:    2107071 HIT:    2106365 MISS:        706 MSHR_MERGE:          0
cpu0->cpu0_STLB LOAD         ACCESS:    2107071 HIT:    2106365 MISS:        706 MSHR_MERGE:          0
cpu0->cpu0_STLB RFO          ACCESS:          0 HIT:          0 MISS:          0 MSHR_MERGE:          0
cpu0->cpu0_STLB PREFETCH     ACCESS:          0 HIT:          0 MISS:          0 MSHR_MERGE:          0
cpu0->cpu0_STLB WRITE        ACCESS:          0 HIT:          0 MISS:          0 MSHR_MERGE:          0
cpu0->cpu0_STLB TRANSLATION  ACCESS:          0 HIT:          0 MISS:          0 MSHR_MERGE:          0
cpu0->cpu0_STLB PREFETCH REQUESTED:          0 ISSUED:          0 USEFUL:          0 USELESS:          0
cpu0->cpu0_STLB AVERAGE MISS LATENCY: 130.5 cycles
cpu0->cpu0_L2C TOTAL        ACCESS:    9412495 HIT:    8698149 MISS:     714346 MSHR_MERGE:          0
cpu0->cpu0_L2C LOAD         ACCESS:    7692480 HIT:    7056720 MISS:     635760 MSHR_MERGE:          0
cpu0->cpu0_L2C RFO          ACCESS:     581262 HIT:     514835 MISS:      66427 MSHR_MERGE:          0
cpu0->cpu0_L2C PREFETCH     ACCESS:          0 HIT:          0 MISS:          0 MSHR_MERGE:          0
cpu0->cpu0_L2C WRITE        ACCESS:    1137488 HIT:    1126122 MISS:      11366 MSHR_MERGE:          0
cpu0->cpu0_L2C TRANSLATION  ACCESS:       1265 HIT:        472 MISS:        793 MSHR_MERGE:          0
cpu0->cpu0_L2C PREFETCH REQUESTED:          0 ISSUED:          0 USEFUL:          0 USELESS:          0
cpu0->cpu0_L2C AVERAGE MISS LATENCY: 31.05 cycles
cpu0->cpu0_L1I TOTAL        ACCESS:   15837734 HIT:    7778358 MISS:    8059376 MSHR_MERGE:    1989441
cpu0->cpu0_L1I LOAD         ACCESS:   15837734 HIT:    7778358 MISS:    8059376 MSHR_MERGE:    1989441
cpu0->cpu0_L1I RFO          ACCESS:          0 HIT:          0 MISS:          0 MSHR_MERGE:          0
cpu0->cpu0_L1I PREFETCH     ACCESS:          0 HIT:          0 MISS:          0 MSHR_MERGE:          0
cpu0->cpu0_L1I WRITE        ACCESS:          0 HIT:          0 MISS:          0 MSHR_MERGE:          0
cpu0->cpu0_L1I TRANSLATION  ACCESS:          0 HIT:          0 MISS:          0 MSHR_MERGE:          0
cpu0->cpu0_L1I PREFETCH REQUESTED:          0 ISSUED:          0 USEFUL:          0 USELESS:          0
cpu0->cpu0_L1I AVERAGE MISS LATENCY: 13.46 cycles
cpu0->cpu0_L1D TOTAL        ACCESS:   30565749 HIT:   26680091 MISS:    3885658 MSHR_MERGE:    1680584
cpu0->cpu0_L1D LOAD         ACCESS:   16709590 HIT:   14592314 MISS:    2117276 MSHR_MERGE:     494731
cpu0->cpu0_L1D RFO          ACCESS:          0 HIT:          0 MISS:          0 MSHR_MERGE:          0
cpu0->cpu0_L1D PREFETCH     ACCESS:          0 HIT:          0 MISS:          0 MSHR_MERGE:          0
cpu0->cpu0_L1D WRITE        ACCESS:   13854734 HIT:   12087636 MISS:    1767098 MSHR_MERGE:    1185834
cpu0->cpu0_L1D TRANSLATION  ACCESS:       1425 HIT:        141 MISS:       1284 MSHR_MERGE:         19
cpu0->cpu0_L1D PREFETCH REQUESTED:          0 ISSUED:          0 USEFUL:          0 USELESS:          0
cpu0->cpu0_L1D AVERAGE MISS LATENCY: 16.1 cycles
cpu0->cpu0_ITLB TOTAL        ACCESS:   12974360 HIT:   10701960 MISS:    2272400 MSHR_MERGE:    1146824
cpu0->cpu0_ITLB LOAD         ACCESS:   12974360 HIT:   10701960 MISS:    2272400 MSHR_MERGE:    1146824
cpu0->cpu0_ITLB RFO          ACCESS:          0 HIT:          0 MISS:          0 MSHR_MERGE:          0
cpu0->cpu0_ITLB PREFETCH     ACCESS:          0 HIT:          0 MISS:          0 MSHR_MERGE:          0
cpu0->cpu0_ITLB WRITE        ACCESS:          0 HIT:          0 MISS:          0 MSHR_MERGE:          0
cpu0->cpu0_ITLB TRANSLATION  ACCESS:          0 HIT:          0 MISS:          0 MSHR_MERGE:          0
cpu0->cpu0_ITLB PREFETCH REQUESTED:          0 ISSUED:          0 USEFUL:          0 USELESS:          0
cpu0->cpu0_ITLB AVERAGE MISS LATENCY: 5.023 cycles
cpu0->cpu0_DTLB TOTAL        ACCESS:   29078014 HIT:   27758265 MISS:    1319749 MSHR_MERGE:     338254
cpu0->cpu0_DTLB LOAD         ACCESS:   29078014 HIT:   27758265 MISS:    1319749 MSHR_MERGE:     338254
cpu0->cpu0_DTLB RFO          ACCESS:          0 HIT:          0 MISS:          0 MSHR_MERGE:          0
cpu0->cpu0_DTLB PREFETCH     ACCESS:          0 HIT:          0 MISS:          0 MSHR_MERGE:          0
cpu0->cpu0_DTLB WRITE        ACCESS:          0 HIT:          0 MISS:          0 MSHR_MERGE:          0
cpu0->cpu0_DTLB TRANSLATION  ACCESS:          0 HIT:          0 MISS:          0 MSHR_MERGE:          0
cpu0->cpu0_DTLB PREFETCH REQUESTED:          0 ISSUED:          0 USEFUL:          0 USELESS:          0
cpu0->cpu0_DTLB AVERAGE MISS LATENCY: 5.083 cycles
cpu0->LLC TOTAL        ACCESS:     822352 HIT:     812694 MISS:       9658 MSHR_MERGE:          0
cpu0->LLC LOAD         ACCESS:     635759 HIT:     626355 MISS:       9404 MSHR_MERGE:          0
cpu0->LLC RFO          ACCESS:      66427 HIT:      66414 MISS:         13 MSHR_MERGE:          0
cpu0->LLC PREFETCH     ACCESS:          0 HIT:          0 MISS:          0 MSHR_MERGE:          0
cpu0->LLC WRITE        ACCESS:     119373 HIT:     119373 MISS:          0 MSHR_MERGE:          0
cpu0->LLC TRANSLATION  ACCESS:        793 HIT:        552 MISS:        241 MSHR_MERGE:          0
cpu0->LLC PREFETCH REQUESTED:          0 ISSUED:          0 USEFUL:          0 USELESS:          0
cpu0->LLC AVERAGE MISS LATENCY: 114.4 cycles

DRAM Statistics

Channel 0 RQ ROW_BUFFER_HIT:         18
  ROW_BUFFER_MISS:       9640
  AVG DBUS CONGESTED CYCLE: 2.99
Channel 0 WQ ROW_BUFFER_HIT:          0
  ROW_BUFFER_MISS:          1
  FULL:          0
Channel 0 REFRESHES ISSUED:       6868

==== TLB→Cache/MEM Breakdown (ROI totals across all caches) ====

DTLB
  (case)                                L1I          L1D          L2C          LLC          MEM
  STLB hit → final level                  0       539326       521060        74491          654
---------------------------------------------------------------
  STLB miss resolved @ L1D                0            4           66           37           11
  STLB miss resolved @ L2C                0           60          264          171           23
  STLB miss resolved @ LLC                0           28          191          320           48
  STLB miss resolved @ MEM                0            0           66          117          119

ITLB
  (case)                                L1I          L1D          L2C          LLC          MEM
  STLB hit → final level             196460        43184      1544039       122023           29
---------------------------------------------------------------
  STLB miss resolved @ L1D                0            0           27            1            6
  STLB miss resolved @ L2C                0           11           63            8            2
  STLB miss resolved @ LLC                0           17           47           16            2
  STLB miss resolved @ MEM                0            0            2            4           35
[2025-09-16 23:39:28] END   suite=qualcomm_srv trace=srv246_ap (rc=0)
