[2025-09-17 08:43:19] START suite=qualcomm_srv trace=srv355_ap
CMD: ./bin/champsim -w 20000000 -i 100000000 /home/ho/itp_asplos25_AE/traces/qualcomm_srv/srv355_ap.champsimtrace.xz
[VMEM] WARNING: physical memory size is smaller than virtual memory size.

*** ChampSim Multicore Out-of-Order Simulator ***
Warmup Instructions: 20000000
Simulation Instructions: 100000000
Number of CPUs: 1
Page size: 4096

Off-chip DRAM Size: 16 GiB Channels: 1 Width: 64-bit Data Rate: 3205 MT/s
[BTB] WARNING: target of return is a lower address than the corresponding call. This is usually a problem with your trace.
[BTB] WARNING: target of return is a lower address than the corresponding call. This is usually a problem with your trace.
[BTB] WARNING: target of return is a lower address than the corresponding call. This is usually a problem with your trace.
[BTB] WARNING: target of return is a lower address than the corresponding call. This is usually a problem with your trace.
[BTB] WARNING: target of return is a lower address than the corresponding call. This is usually a problem with your trace.
[BTB] WARNING: target of return is a lower address than the corresponding call. This is usually a problem with your trace.
[BTB] WARNING: target of return is a lower address than the corresponding call. This is usually a problem with your trace.
[BTB] WARNING: target of return is a lower address than the corresponding call. This is usually a problem with your trace.
[BTB] WARNING: target of return is a lower address than the corresponding call. This is usually a problem with your trace.
[BTB] WARNING: target of return is a lower address than the corresponding call. This is usually a problem with your trace.
Heartbeat CPU 0 instructions: 10000001 cycles: 2637375 heartbeat IPC: 3.792 cumulative IPC: 3.792 (Simulation time: 00 hr 00 min 38 sec)
Heartbeat CPU 0 instructions: 20000001 cycles: 5042836 heartbeat IPC: 4.157 cumulative IPC: 3.966 (Simulation time: 00 hr 01 min 17 sec)
Warmup finished CPU 0 instructions: 20000001 cycles: 5042836 cumulative IPC: 3.966 (Simulation time: 00 hr 01 min 17 sec)
Warmup complete CPU 0 instructions: 20000001 cycles: 5042836 cumulative IPC: 3.966 (Simulation time: 00 hr 01 min 17 sec)
Heartbeat CPU 0 instructions: 30000005 cycles: 13740760 heartbeat IPC: 1.15 cumulative IPC: 1.15 (Simulation time: 00 hr 02 min 28 sec)
Heartbeat CPU 0 instructions: 40000005 cycles: 22294810 heartbeat IPC: 1.169 cumulative IPC: 1.159 (Simulation time: 00 hr 03 min 37 sec)
Heartbeat CPU 0 instructions: 50000005 cycles: 30812649 heartbeat IPC: 1.174 cumulative IPC: 1.164 (Simulation time: 00 hr 04 min 44 sec)
Heartbeat CPU 0 instructions: 60000005 cycles: 39407946 heartbeat IPC: 1.163 cumulative IPC: 1.164 (Simulation time: 00 hr 05 min 54 sec)
Heartbeat CPU 0 instructions: 70000006 cycles: 47777397 heartbeat IPC: 1.195 cumulative IPC: 1.17 (Simulation time: 00 hr 07 min 04 sec)
Heartbeat CPU 0 instructions: 80000009 cycles: 56368377 heartbeat IPC: 1.164 cumulative IPC: 1.169 (Simulation time: 00 hr 08 min 16 sec)
Heartbeat CPU 0 instructions: 90000010 cycles: 64903664 heartbeat IPC: 1.172 cumulative IPC: 1.169 (Simulation time: 00 hr 09 min 25 sec)
Heartbeat CPU 0 instructions: 100000013 cycles: 73442064 heartbeat IPC: 1.171 cumulative IPC: 1.17 (Simulation time: 00 hr 10 min 31 sec)
*** Reached end of trace: (0, "/home/ho/itp_asplos25_AE/traces/qualcomm_srv/srv355_ap.champsimtrace.xz")
Heartbeat CPU 0 instructions: 110000013 cycles: 81938611 heartbeat IPC: 1.177 cumulative IPC: 1.17 (Simulation time: 00 hr 11 min 39 sec)
Simulation finished CPU 0 instructions: 100000001 cycles: 85502474 cumulative IPC: 1.17 (Simulation time: 00 hr 12 min 47 sec)
Simulation complete CPU 0 instructions: 100000001 cycles: 85502474 cumulative IPC: 1.17 (Simulation time: 00 hr 12 min 47 sec)

ChampSim completed all CPUs

=== Simulation ===
CPU 0 runs /home/ho/itp_asplos25_AE/traces/qualcomm_srv/srv355_ap.champsimtrace.xz

Region of Interest Statistics

CPU 0 cumulative IPC: 1.17 instructions: 100000001 cycles: 85502474
CPU 0 Branch Prediction Accuracy: 91.6% MPKI: 14.82 Average ROB Occupancy at Mispredict: 27.86
Branch type MPKI
BRANCH_DIRECT_JUMP: 0.2778
BRANCH_INDIRECT: 0.4211
BRANCH_CONDITIONAL: 12.45
BRANCH_DIRECT_CALL: 0.7046
BRANCH_INDIRECT_CALL: 0.5169
BRANCH_RETURN: 0.4535


====Backend Stall Breakdown====
ROB_STALL: 193384
LQ_STALL: 0
SQ_STALL: 560647


====ROB Stall Breakdown====

== Average ==
ADDR_TRANS: 117.37795
REPLAY_LOAD: 81.32919
NON_REPLAY_LOAD: 15.186685

== Total ==
ADDR_TRANS: 14907
REPLAY_LOAD: 13094
NON_REPLAY_LOAD: 165383

== Counts ==
ADDR_TRANS: 127
REPLAY_LOAD: 161
NON_REPLAY_LOAD: 10890

cpu0->cpu0_STLB TOTAL        ACCESS:    1765385 HIT:    1759355 MISS:       6030 MSHR_MERGE:          0
cpu0->cpu0_STLB LOAD         ACCESS:    1765385 HIT:    1759355 MISS:       6030 MSHR_MERGE:          0
cpu0->cpu0_STLB RFO          ACCESS:          0 HIT:          0 MISS:          0 MSHR_MERGE:          0
cpu0->cpu0_STLB PREFETCH     ACCESS:          0 HIT:          0 MISS:          0 MSHR_MERGE:          0
cpu0->cpu0_STLB WRITE        ACCESS:          0 HIT:          0 MISS:          0 MSHR_MERGE:          0
cpu0->cpu0_STLB TRANSLATION  ACCESS:          0 HIT:          0 MISS:          0 MSHR_MERGE:          0
cpu0->cpu0_STLB PREFETCH REQUESTED:          0 ISSUED:          0 USEFUL:          0 USELESS:          0
cpu0->cpu0_STLB AVERAGE MISS LATENCY: 180.6 cycles
cpu0->cpu0_L2C TOTAL        ACCESS:    7703373 HIT:    6635583 MISS:    1067790 MSHR_MERGE:          0
cpu0->cpu0_L2C LOAD         ACCESS:    6239996 HIT:    5353832 MISS:     886164 MSHR_MERGE:          0
cpu0->cpu0_L2C RFO          ACCESS:     540055 HIT:     385269 MISS:     154786 MSHR_MERGE:          0
cpu0->cpu0_L2C PREFETCH     ACCESS:          0 HIT:          0 MISS:          0 MSHR_MERGE:          0
cpu0->cpu0_L2C WRITE        ACCESS:     912506 HIT:     894831 MISS:      17675 MSHR_MERGE:          0
cpu0->cpu0_L2C TRANSLATION  ACCESS:      10816 HIT:       1651 MISS:       9165 MSHR_MERGE:          0
cpu0->cpu0_L2C PREFETCH REQUESTED:          0 ISSUED:          0 USEFUL:          0 USELESS:          0
cpu0->cpu0_L2C AVERAGE MISS LATENCY: 37.19 cycles
cpu0->cpu0_L1I TOTAL        ACCESS:   14494653 HIT:    8117193 MISS:    6377460 MSHR_MERGE:    1538649
cpu0->cpu0_L1I LOAD         ACCESS:   14494653 HIT:    8117193 MISS:    6377460 MSHR_MERGE:    1538649
cpu0->cpu0_L1I RFO          ACCESS:          0 HIT:          0 MISS:          0 MSHR_MERGE:          0
cpu0->cpu0_L1I PREFETCH     ACCESS:          0 HIT:          0 MISS:          0 MSHR_MERGE:          0
cpu0->cpu0_L1I WRITE        ACCESS:          0 HIT:          0 MISS:          0 MSHR_MERGE:          0
cpu0->cpu0_L1I TRANSLATION  ACCESS:          0 HIT:          0 MISS:          0 MSHR_MERGE:          0
cpu0->cpu0_L1I PREFETCH REQUESTED:          0 ISSUED:          0 USEFUL:          0 USELESS:          0
cpu0->cpu0_L1I AVERAGE MISS LATENCY: 15.01 cycles
cpu0->cpu0_L1D TOTAL        ACCESS:   29921489 HIT:   26577689 MISS:    3343800 MSHR_MERGE:    1391705
cpu0->cpu0_L1D LOAD         ACCESS:   16889504 HIT:   15143700 MISS:    1745804 MSHR_MERGE:     344608
cpu0->cpu0_L1D RFO          ACCESS:          0 HIT:          0 MISS:          0 MSHR_MERGE:          0
cpu0->cpu0_L1D PREFETCH     ACCESS:          0 HIT:          0 MISS:          0 MSHR_MERGE:          0
cpu0->cpu0_L1D WRITE        ACCESS:   13019561 HIT:   11432395 MISS:    1587166 MSHR_MERGE:    1047083
cpu0->cpu0_L1D TRANSLATION  ACCESS:      12424 HIT:       1594 MISS:      10830 MSHR_MERGE:         14
cpu0->cpu0_L1D PREFETCH REQUESTED:          0 ISSUED:          0 USEFUL:          0 USELESS:          0
cpu0->cpu0_L1D AVERAGE MISS LATENCY: 23.27 cycles
cpu0->cpu0_ITLB TOTAL        ACCESS:   12108593 HIT:   10373427 MISS:    1735166 MSHR_MERGE:     876695
cpu0->cpu0_ITLB LOAD         ACCESS:   12108593 HIT:   10373427 MISS:    1735166 MSHR_MERGE:     876695
cpu0->cpu0_ITLB RFO          ACCESS:          0 HIT:          0 MISS:          0 MSHR_MERGE:          0
cpu0->cpu0_ITLB PREFETCH     ACCESS:          0 HIT:          0 MISS:          0 MSHR_MERGE:          0
cpu0->cpu0_ITLB WRITE        ACCESS:          0 HIT:          0 MISS:          0 MSHR_MERGE:          0
cpu0->cpu0_ITLB TRANSLATION  ACCESS:          0 HIT:          0 MISS:          0 MSHR_MERGE:          0
cpu0->cpu0_ITLB PREFETCH REQUESTED:          0 ISSUED:          0 USEFUL:          0 USELESS:          0
cpu0->cpu0_ITLB AVERAGE MISS LATENCY: 5.152 cycles
cpu0->cpu0_DTLB TOTAL        ACCESS:   28276577 HIT:   27064135 MISS:    1212442 MSHR_MERGE:     305528
cpu0->cpu0_DTLB LOAD         ACCESS:   28276577 HIT:   27064135 MISS:    1212442 MSHR_MERGE:     305528
cpu0->cpu0_DTLB RFO          ACCESS:          0 HIT:          0 MISS:          0 MSHR_MERGE:          0
cpu0->cpu0_DTLB PREFETCH     ACCESS:          0 HIT:          0 MISS:          0 MSHR_MERGE:          0
cpu0->cpu0_DTLB WRITE        ACCESS:          0 HIT:          0 MISS:          0 MSHR_MERGE:          0
cpu0->cpu0_DTLB TRANSLATION  ACCESS:          0 HIT:          0 MISS:          0 MSHR_MERGE:          0
cpu0->cpu0_DTLB PREFETCH REQUESTED:          0 ISSUED:          0 USEFUL:          0 USELESS:          0
cpu0->cpu0_DTLB AVERAGE MISS LATENCY: 6.063 cycles
cpu0->LLC TOTAL        ACCESS:    1283843 HIT:    1213923 MISS:      69920 MSHR_MERGE:          0
cpu0->LLC LOAD         ACCESS:     886164 HIT:     859448 MISS:      26716 MSHR_MERGE:          0
cpu0->LLC RFO          ACCESS:     154786 HIT:     116188 MISS:      38598 MSHR_MERGE:          0
cpu0->LLC PREFETCH     ACCESS:          0 HIT:          0 MISS:          0 MSHR_MERGE:          0
cpu0->LLC WRITE        ACCESS:     233728 HIT:     233489 MISS:        239 MSHR_MERGE:          0
cpu0->LLC TRANSLATION  ACCESS:       9165 HIT:       4798 MISS:       4367 MSHR_MERGE:          0
cpu0->LLC PREFETCH REQUESTED:          0 ISSUED:          0 USEFUL:          0 USELESS:          0
cpu0->LLC AVERAGE MISS LATENCY: 119.8 cycles

DRAM Statistics

Channel 0 RQ ROW_BUFFER_HIT:       4008
  ROW_BUFFER_MISS:      65671
  AVG DBUS CONGESTED CYCLE: 3.648
Channel 0 WQ ROW_BUFFER_HIT:       1670
  ROW_BUFFER_MISS:      33235
  FULL:          0
Channel 0 REFRESHES ISSUED:       7125

==== TLB→Cache/MEM Breakdown (ROI totals across all caches) ====

DTLB
  (case)                                L1I          L1D          L2C          LLC          MEM
  STLB hit → final level                  0       535304       402253        82323         4904
---------------------------------------------------------------
  STLB miss resolved @ L1D                0            4          483          313          229
  STLB miss resolved @ L2C                0          452          744          899          149
  STLB miss resolved @ LLC                0          196          495         2258          915
  STLB miss resolved @ MEM                0            3          244         2154         2373

ITLB
  (case)                                L1I          L1D          L2C          LLC          MEM
  STLB hit → final level             157789        50199      1127597       137325          610
---------------------------------------------------------------
  STLB miss resolved @ L1D                0            0          412          135           53
  STLB miss resolved @ L2C                0           61          136           51           10
  STLB miss resolved @ LLC                0          372          651          595           64
  STLB miss resolved @ MEM                0            0           79          305          165
[2025-09-17 08:56:06] END   suite=qualcomm_srv trace=srv355_ap (rc=0)
