[2025-09-17 03:00:26] START suite=qualcomm_srv trace=srv581_ap
CMD: ./bin/champsim -w 20000000 -i 100000000 /home/ho/itp_asplos25_AE/traces/qualcomm_srv/srv581_ap.champsimtrace.xz
[VMEM] WARNING: physical memory size is smaller than virtual memory size.

*** ChampSim Multicore Out-of-Order Simulator ***
Warmup Instructions: 20000000
Simulation Instructions: 100000000
Number of CPUs: 1
Page size: 4096

Off-chip DRAM Size: 16 GiB Channels: 1 Width: 64-bit Data Rate: 3205 MT/s
Heartbeat CPU 0 instructions: 10000002 cycles: 2506828 heartbeat IPC: 3.989 cumulative IPC: 3.989 (Simulation time: 00 hr 00 min 36 sec)
[BTB] WARNING: target of return is a lower address than the corresponding call. This is usually a problem with your trace.
[BTB] WARNING: target of return is a lower address than the corresponding call. This is usually a problem with your trace.
[BTB] WARNING: target of return is a lower address than the corresponding call. This is usually a problem with your trace.
[BTB] WARNING: target of return is a lower address than the corresponding call. This is usually a problem with your trace.
[BTB] WARNING: target of return is a lower address than the corresponding call. This is usually a problem with your trace.
[BTB] WARNING: target of return is a lower address than the corresponding call. This is usually a problem with your trace.
Heartbeat CPU 0 instructions: 20000002 cycles: 4922479 heartbeat IPC: 4.14 cumulative IPC: 4.063 (Simulation time: 00 hr 01 min 10 sec)
Warmup finished CPU 0 instructions: 20000002 cycles: 4922479 cumulative IPC: 4.063 (Simulation time: 00 hr 01 min 10 sec)
Warmup complete CPU 0 instructions: 20000002 cycles: 4922479 cumulative IPC: 4.063 (Simulation time: 00 hr 01 min 10 sec)
Heartbeat CPU 0 instructions: 30000005 cycles: 11603587 heartbeat IPC: 1.497 cumulative IPC: 1.497 (Simulation time: 00 hr 02 min 10 sec)
[BTB] WARNING: target of return is a lower address than the corresponding call. This is usually a problem with your trace.
Heartbeat CPU 0 instructions: 40000005 cycles: 18534289 heartbeat IPC: 1.443 cumulative IPC: 1.469 (Simulation time: 00 hr 03 min 08 sec)
Heartbeat CPU 0 instructions: 50000005 cycles: 25351639 heartbeat IPC: 1.467 cumulative IPC: 1.468 (Simulation time: 00 hr 04 min 03 sec)
Heartbeat CPU 0 instructions: 60000006 cycles: 32272210 heartbeat IPC: 1.445 cumulative IPC: 1.463 (Simulation time: 00 hr 05 min 00 sec)
[BTB] WARNING: target of return is a lower address than the corresponding call. This is usually a problem with your trace.
[BTB] WARNING: target of return is a lower address than the corresponding call. This is usually a problem with your trace.
[BTB] WARNING: target of return is a lower address than the corresponding call. This is usually a problem with your trace.
Heartbeat CPU 0 instructions: 70000010 cycles: 39157072 heartbeat IPC: 1.452 cumulative IPC: 1.461 (Simulation time: 00 hr 05 min 55 sec)
Heartbeat CPU 0 instructions: 80000013 cycles: 45866957 heartbeat IPC: 1.49 cumulative IPC: 1.465 (Simulation time: 00 hr 06 min 51 sec)
Heartbeat CPU 0 instructions: 90000014 cycles: 52586102 heartbeat IPC: 1.488 cumulative IPC: 1.469 (Simulation time: 00 hr 07 min 45 sec)
Heartbeat CPU 0 instructions: 100000018 cycles: 59374530 heartbeat IPC: 1.473 cumulative IPC: 1.469 (Simulation time: 00 hr 08 min 43 sec)
*** Reached end of trace: (0, "/home/ho/itp_asplos25_AE/traces/qualcomm_srv/srv581_ap.champsimtrace.xz")
Heartbeat CPU 0 instructions: 110000019 cycles: 66138160 heartbeat IPC: 1.478 cumulative IPC: 1.47 (Simulation time: 00 hr 09 min 40 sec)
Simulation finished CPU 0 instructions: 100000000 cycles: 67971212 cumulative IPC: 1.471 (Simulation time: 00 hr 10 min 41 sec)
Simulation complete CPU 0 instructions: 100000000 cycles: 67971212 cumulative IPC: 1.471 (Simulation time: 00 hr 10 min 41 sec)

ChampSim completed all CPUs

=== Simulation ===
CPU 0 runs /home/ho/itp_asplos25_AE/traces/qualcomm_srv/srv581_ap.champsimtrace.xz

Region of Interest Statistics

CPU 0 cumulative IPC: 1.471 instructions: 100000000 cycles: 67971212
CPU 0 Branch Prediction Accuracy: 93.78% MPKI: 11.61 Average ROB Occupancy at Mispredict: 31
Branch type MPKI
BRANCH_DIRECT_JUMP: 0.00933
BRANCH_INDIRECT: 0.4244
BRANCH_CONDITIONAL: 10.95
BRANCH_DIRECT_CALL: 0.0027
BRANCH_INDIRECT_CALL: 0.2045
BRANCH_RETURN: 0.01347


====Backend Stall Breakdown====
ROB_STALL: 377789
LQ_STALL: 0
SQ_STALL: 185


====ROB Stall Breakdown====

== Average ==
ADDR_TRANS: 424.66666
REPLAY_LOAD: 101.20879
NON_REPLAY_LOAD: 29.054165

== Total ==
ADDR_TRANS: 34398
REPLAY_LOAD: 9210
NON_REPLAY_LOAD: 334181

== Counts ==
ADDR_TRANS: 81
REPLAY_LOAD: 91
NON_REPLAY_LOAD: 11502

cpu0->cpu0_STLB TOTAL        ACCESS:    1748743 HIT:    1747238 MISS:       1505 MSHR_MERGE:          0
cpu0->cpu0_STLB LOAD         ACCESS:    1748743 HIT:    1747238 MISS:       1505 MSHR_MERGE:          0
cpu0->cpu0_STLB RFO          ACCESS:          0 HIT:          0 MISS:          0 MSHR_MERGE:          0
cpu0->cpu0_STLB PREFETCH     ACCESS:          0 HIT:          0 MISS:          0 MSHR_MERGE:          0
cpu0->cpu0_STLB WRITE        ACCESS:          0 HIT:          0 MISS:          0 MSHR_MERGE:          0
cpu0->cpu0_STLB TRANSLATION  ACCESS:          0 HIT:          0 MISS:          0 MSHR_MERGE:          0
cpu0->cpu0_STLB PREFETCH REQUESTED:          0 ISSUED:          0 USEFUL:          0 USELESS:          0
cpu0->cpu0_STLB AVERAGE MISS LATENCY: 124.2 cycles
cpu0->cpu0_L2C TOTAL        ACCESS:    7958343 HIT:    7729703 MISS:     228640 MSHR_MERGE:          0
cpu0->cpu0_L2C LOAD         ACCESS:    7314799 HIT:    7119082 MISS:     195717 MSHR_MERGE:          0
cpu0->cpu0_L2C RFO          ACCESS:     176098 HIT:     152826 MISS:      23272 MSHR_MERGE:          0
cpu0->cpu0_L2C PREFETCH     ACCESS:          0 HIT:          0 MISS:          0 MSHR_MERGE:          0
cpu0->cpu0_L2C WRITE        ACCESS:     465584 HIT:     456732 MISS:       8852 MSHR_MERGE:          0
cpu0->cpu0_L2C TRANSLATION  ACCESS:       1862 HIT:       1063 MISS:        799 MSHR_MERGE:          0
cpu0->cpu0_L2C PREFETCH REQUESTED:          0 ISSUED:          0 USEFUL:          0 USELESS:          0
cpu0->cpu0_L2C AVERAGE MISS LATENCY: 33.33 cycles
cpu0->cpu0_L1I TOTAL        ACCESS:   15687782 HIT:    7168787 MISS:    8518995 MSHR_MERGE:    2215135
cpu0->cpu0_L1I LOAD         ACCESS:   15687782 HIT:    7168787 MISS:    8518995 MSHR_MERGE:    2215135
cpu0->cpu0_L1I RFO          ACCESS:          0 HIT:          0 MISS:          0 MSHR_MERGE:          0
cpu0->cpu0_L1I PREFETCH     ACCESS:          0 HIT:          0 MISS:          0 MSHR_MERGE:          0
cpu0->cpu0_L1I WRITE        ACCESS:          0 HIT:          0 MISS:          0 MSHR_MERGE:          0
cpu0->cpu0_L1I TRANSLATION  ACCESS:          0 HIT:          0 MISS:          0 MSHR_MERGE:          0
cpu0->cpu0_L1I PREFETCH REQUESTED:          0 ISSUED:          0 USEFUL:          0 USELESS:          0
cpu0->cpu0_L1I AVERAGE MISS LATENCY: 11.7 cycles
cpu0->cpu0_L1D TOTAL        ACCESS:   27400340 HIT:   25588536 MISS:    1811804 MSHR_MERGE:     622875
cpu0->cpu0_L1D LOAD         ACCESS:   15012027 HIT:   13648583 MISS:    1363444 MSHR_MERGE:     352477
cpu0->cpu0_L1D RFO          ACCESS:          0 HIT:          0 MISS:          0 MSHR_MERGE:          0
cpu0->cpu0_L1D PREFETCH     ACCESS:          0 HIT:          0 MISS:          0 MSHR_MERGE:          0
cpu0->cpu0_L1D WRITE        ACCESS:   12385287 HIT:   11938789 MISS:     446498 MSHR_MERGE:     270398
cpu0->cpu0_L1D TRANSLATION  ACCESS:       3026 HIT:       1164 MISS:       1862 MSHR_MERGE:          0
cpu0->cpu0_L1D PREFETCH REQUESTED:          0 ISSUED:          0 USEFUL:          0 USELESS:          0
cpu0->cpu0_L1D AVERAGE MISS LATENCY: 16.14 cycles
cpu0->cpu0_ITLB TOTAL        ACCESS:   13054810 HIT:   11079543 MISS:    1975267 MSHR_MERGE:    1016301
cpu0->cpu0_ITLB LOAD         ACCESS:   13054810 HIT:   11079543 MISS:    1975267 MSHR_MERGE:    1016301
cpu0->cpu0_ITLB RFO          ACCESS:          0 HIT:          0 MISS:          0 MSHR_MERGE:          0
cpu0->cpu0_ITLB PREFETCH     ACCESS:          0 HIT:          0 MISS:          0 MSHR_MERGE:          0
cpu0->cpu0_ITLB WRITE        ACCESS:          0 HIT:          0 MISS:          0 MSHR_MERGE:          0
cpu0->cpu0_ITLB TRANSLATION  ACCESS:          0 HIT:          0 MISS:          0 MSHR_MERGE:          0
cpu0->cpu0_ITLB PREFETCH REQUESTED:          0 ISSUED:          0 USEFUL:          0 USELESS:          0
cpu0->cpu0_ITLB AVERAGE MISS LATENCY: 5.032 cycles
cpu0->cpu0_DTLB TOTAL        ACCESS:   25798095 HIT:   24666447 MISS:    1131648 MSHR_MERGE:     341871
cpu0->cpu0_DTLB LOAD         ACCESS:   25798095 HIT:   24666447 MISS:    1131648 MSHR_MERGE:     341871
cpu0->cpu0_DTLB RFO          ACCESS:          0 HIT:          0 MISS:          0 MSHR_MERGE:          0
cpu0->cpu0_DTLB PREFETCH     ACCESS:          0 HIT:          0 MISS:          0 MSHR_MERGE:          0
cpu0->cpu0_DTLB WRITE        ACCESS:          0 HIT:          0 MISS:          0 MSHR_MERGE:          0
cpu0->cpu0_DTLB TRANSLATION  ACCESS:          0 HIT:          0 MISS:          0 MSHR_MERGE:          0
cpu0->cpu0_DTLB PREFETCH REQUESTED:          0 ISSUED:          0 USEFUL:          0 USELESS:          0
cpu0->cpu0_DTLB AVERAGE MISS LATENCY: 5.21 cycles
cpu0->LLC TOTAL        ACCESS:     296921 HIT:     284087 MISS:      12834 MSHR_MERGE:          0
cpu0->LLC LOAD         ACCESS:     195716 HIT:     188515 MISS:       7201 MSHR_MERGE:          0
cpu0->LLC RFO          ACCESS:      23272 HIT:      18173 MISS:       5099 MSHR_MERGE:          0
cpu0->LLC PREFETCH     ACCESS:          0 HIT:          0 MISS:          0 MSHR_MERGE:          0
cpu0->LLC WRITE        ACCESS:      77134 HIT:      77113 MISS:         21 MSHR_MERGE:          0
cpu0->LLC TRANSLATION  ACCESS:        799 HIT:        286 MISS:        513 MSHR_MERGE:          0
cpu0->LLC PREFETCH REQUESTED:          0 ISSUED:          0 USEFUL:          0 USELESS:          0
cpu0->LLC AVERAGE MISS LATENCY: 81.97 cycles

DRAM Statistics

Channel 0 RQ ROW_BUFFER_HIT:       1055
  ROW_BUFFER_MISS:      11758
  AVG DBUS CONGESTED CYCLE: 5.408
Channel 0 WQ ROW_BUFFER_HIT:        175
  ROW_BUFFER_MISS:       1129
  FULL:          0
Channel 0 REFRESHES ISSUED:       5664

==== TLB→Cache/MEM Breakdown (ROI totals across all caches) ====

DTLB
  (case)                                L1I          L1D          L2C          LLC          MEM
  STLB hit → final level                  0       603690       330253        30917          801
---------------------------------------------------------------
  STLB miss resolved @ L1D                0           44          372           26          109
  STLB miss resolved @ L2C                0          455          382           16           29
  STLB miss resolved @ LLC                0           15           26          141           35
  STLB miss resolved @ MEM                0            1           19          117          418

ITLB
  (case)                                L1I          L1D          L2C          LLC          MEM
  STLB hit → final level             147948        42764      1470511        23574          158
---------------------------------------------------------------
  STLB miss resolved @ L1D                0           85          672            6            0
  STLB miss resolved @ L2C                0          693          611            0            0
  STLB miss resolved @ LLC                0           66           72           37            2
  STLB miss resolved @ MEM                0            0           10           29            9
[2025-09-17 03:11:08] END   suite=qualcomm_srv trace=srv581_ap (rc=0)
