[2025-09-17 05:58:15] START suite=qualcomm_srv trace=srv609_ap
CMD: ./bin/champsim -w 20000000 -i 100000000 /home/ho/itp_asplos25_AE/traces/qualcomm_srv/srv609_ap.champsimtrace.xz
[VMEM] WARNING: physical memory size is smaller than virtual memory size.

*** ChampSim Multicore Out-of-Order Simulator ***
Warmup Instructions: 20000000
Simulation Instructions: 100000000
Number of CPUs: 1
Page size: 4096

Off-chip DRAM Size: 16 GiB Channels: 1 Width: 64-bit Data Rate: 3205 MT/s
[BTB] WARNING: target of return is a lower address than the corresponding call. This is usually a problem with your trace.
[BTB] WARNING: target of return is a lower address than the corresponding call. This is usually a problem with your trace.
[BTB] WARNING: target of return is a lower address than the corresponding call. This is usually a problem with your trace.
[BTB] WARNING: target of return is a lower address than the corresponding call. This is usually a problem with your trace.
[BTB] WARNING: target of return is a lower address than the corresponding call. This is usually a problem with your trace.
[BTB] WARNING: target of return is a lower address than the corresponding call. This is usually a problem with your trace.
[BTB] WARNING: target of return is a lower address than the corresponding call. This is usually a problem with your trace.
[BTB] WARNING: target of return is a lower address than the corresponding call. This is usually a problem with your trace.
[BTB] WARNING: target of return is a lower address than the corresponding call. This is usually a problem with your trace.
[BTB] WARNING: target of return is a lower address than the corresponding call. This is usually a problem with your trace.
Heartbeat CPU 0 instructions: 10000002 cycles: 2865179 heartbeat IPC: 3.49 cumulative IPC: 3.49 (Simulation time: 00 hr 00 min 37 sec)
Warmup finished CPU 0 instructions: 20000001 cycles: 5314960 cumulative IPC: 3.763 (Simulation time: 00 hr 01 min 10 sec)
Warmup complete CPU 0 instructions: 20000001 cycles: 5314960 cumulative IPC: 3.763 (Simulation time: 00 hr 01 min 10 sec)
Heartbeat CPU 0 instructions: 20000006 cycles: 5314961 heartbeat IPC: 4.082 cumulative IPC: 5 (Simulation time: 00 hr 01 min 10 sec)
Heartbeat CPU 0 instructions: 30000009 cycles: 15576667 heartbeat IPC: 0.9745 cumulative IPC: 0.9745 (Simulation time: 00 hr 02 min 23 sec)
Heartbeat CPU 0 instructions: 40000010 cycles: 26264798 heartbeat IPC: 0.9356 cumulative IPC: 0.9547 (Simulation time: 00 hr 03 min 43 sec)
Heartbeat CPU 0 instructions: 50000011 cycles: 35716431 heartbeat IPC: 1.058 cumulative IPC: 0.9868 (Simulation time: 00 hr 04 min 59 sec)
Heartbeat CPU 0 instructions: 60000012 cycles: 45574592 heartbeat IPC: 1.014 cumulative IPC: 0.9936 (Simulation time: 00 hr 06 min 10 sec)
Heartbeat CPU 0 instructions: 70000012 cycles: 55408075 heartbeat IPC: 1.017 cumulative IPC: 0.9981 (Simulation time: 00 hr 07 min 25 sec)
Heartbeat CPU 0 instructions: 80000015 cycles: 65067367 heartbeat IPC: 1.035 cumulative IPC: 1.004 (Simulation time: 00 hr 08 min 40 sec)
Heartbeat CPU 0 instructions: 90000016 cycles: 75564536 heartbeat IPC: 0.9526 cumulative IPC: 0.9964 (Simulation time: 00 hr 09 min 59 sec)
Heartbeat CPU 0 instructions: 100000019 cycles: 85577938 heartbeat IPC: 0.9987 cumulative IPC: 0.9967 (Simulation time: 00 hr 11 min 15 sec)
*** Reached end of trace: (0, "/home/ho/itp_asplos25_AE/traces/qualcomm_srv/srv609_ap.champsimtrace.xz")
Heartbeat CPU 0 instructions: 110000021 cycles: 95786471 heartbeat IPC: 0.9796 cumulative IPC: 0.9948 (Simulation time: 00 hr 12 min 32 sec)
Simulation finished CPU 0 instructions: 100000001 cycles: 100279463 cumulative IPC: 0.9972 (Simulation time: 00 hr 13 min 49 sec)
Simulation complete CPU 0 instructions: 100000001 cycles: 100279463 cumulative IPC: 0.9972 (Simulation time: 00 hr 13 min 49 sec)

ChampSim completed all CPUs

=== Simulation ===
CPU 0 runs /home/ho/itp_asplos25_AE/traces/qualcomm_srv/srv609_ap.champsimtrace.xz

Region of Interest Statistics

CPU 0 cumulative IPC: 0.9972 instructions: 100000001 cycles: 100279463
CPU 0 Branch Prediction Accuracy: 93.8% MPKI: 11.09 Average ROB Occupancy at Mispredict: 38.28
Branch type MPKI
BRANCH_DIRECT_JUMP: 0.1815
BRANCH_INDIRECT: 0.1684
BRANCH_CONDITIONAL: 9.984
BRANCH_DIRECT_CALL: 0.3498
BRANCH_INDIRECT_CALL: 0.08975
BRANCH_RETURN: 0.3194


====Backend Stall Breakdown====
ROB_STALL: 1824896
LQ_STALL: 17697
SQ_STALL: 490444


====ROB Stall Breakdown====

== Average ==
ADDR_TRANS: 194.4028
REPLAY_LOAD: 72.13793
NON_REPLAY_LOAD: 13.169998

== Total ==
ADDR_TRANS: 444016
REPLAY_LOAD: 238488
NON_REPLAY_LOAD: 1142392

== Counts ==
ADDR_TRANS: 2284
REPLAY_LOAD: 3306
NON_REPLAY_LOAD: 86742

cpu0->cpu0_STLB TOTAL        ACCESS:    1626759 HIT:    1456755 MISS:     170004 MSHR_MERGE:          0
cpu0->cpu0_STLB LOAD         ACCESS:    1626759 HIT:    1456755 MISS:     170004 MSHR_MERGE:          0
cpu0->cpu0_STLB RFO          ACCESS:          0 HIT:          0 MISS:          0 MSHR_MERGE:          0
cpu0->cpu0_STLB PREFETCH     ACCESS:          0 HIT:          0 MISS:          0 MSHR_MERGE:          0
cpu0->cpu0_STLB WRITE        ACCESS:          0 HIT:          0 MISS:          0 MSHR_MERGE:          0
cpu0->cpu0_STLB TRANSLATION  ACCESS:          0 HIT:          0 MISS:          0 MSHR_MERGE:          0
cpu0->cpu0_STLB PREFETCH REQUESTED:          0 ISSUED:          0 USEFUL:          0 USELESS:          0
cpu0->cpu0_STLB AVERAGE MISS LATENCY: 116.5 cycles
cpu0->cpu0_L2C TOTAL        ACCESS:    4740241 HIT:    2777508 MISS:    1962733 MSHR_MERGE:          0
cpu0->cpu0_L2C LOAD         ACCESS:    3679221 HIT:    2114304 MISS:    1564917 MSHR_MERGE:          0
cpu0->cpu0_L2C RFO          ACCESS:     176924 HIT:      82327 MISS:      94597 MSHR_MERGE:          0
cpu0->cpu0_L2C PREFETCH     ACCESS:          0 HIT:          0 MISS:          0 MSHR_MERGE:          0
cpu0->cpu0_L2C WRITE        ACCESS:     530854 HIT:     528673 MISS:       2181 MSHR_MERGE:          0
cpu0->cpu0_L2C TRANSLATION  ACCESS:     353242 HIT:      52204 MISS:     301038 MSHR_MERGE:          0
cpu0->cpu0_L2C PREFETCH REQUESTED:          0 ISSUED:          0 USEFUL:          0 USELESS:          0
cpu0->cpu0_L2C AVERAGE MISS LATENCY: 39.69 cycles
cpu0->cpu0_L1I TOTAL        ACCESS:   14438575 HIT:   10895803 MISS:    3542772 MSHR_MERGE:     977910
cpu0->cpu0_L1I LOAD         ACCESS:   14438575 HIT:   10895803 MISS:    3542772 MSHR_MERGE:     977910
cpu0->cpu0_L1I RFO          ACCESS:          0 HIT:          0 MISS:          0 MSHR_MERGE:          0
cpu0->cpu0_L1I PREFETCH     ACCESS:          0 HIT:          0 MISS:          0 MSHR_MERGE:          0
cpu0->cpu0_L1I WRITE        ACCESS:          0 HIT:          0 MISS:          0 MSHR_MERGE:          0
cpu0->cpu0_L1I TRANSLATION  ACCESS:          0 HIT:          0 MISS:          0 MSHR_MERGE:          0
cpu0->cpu0_L1I PREFETCH REQUESTED:          0 ISSUED:          0 USEFUL:          0 USELESS:          0
cpu0->cpu0_L1I AVERAGE MISS LATENCY: 23.84 cycles
cpu0->cpu0_L1D TOTAL        ACCESS:   24825293 HIT:   22546220 MISS:    2279073 MSHR_MERGE:     634526
cpu0->cpu0_L1D LOAD         ACCESS:   14410977 HIT:   12926303 MISS:    1484674 MSHR_MERGE:     370314
cpu0->cpu0_L1D RFO          ACCESS:          0 HIT:          0 MISS:          0 MSHR_MERGE:          0
cpu0->cpu0_L1D PREFETCH     ACCESS:          0 HIT:          0 MISS:          0 MSHR_MERGE:          0
cpu0->cpu0_L1D WRITE        ACCESS:   10023737 HIT:    9585841 MISS:     437896 MSHR_MERGE:     260951
cpu0->cpu0_L1D TRANSLATION  ACCESS:     390579 HIT:      34076 MISS:     356503 MSHR_MERGE:       3261
cpu0->cpu0_L1D PREFETCH REQUESTED:          0 ISSUED:          0 USEFUL:          0 USELESS:          0
cpu0->cpu0_L1D AVERAGE MISS LATENCY: 37.94 cycles
cpu0->cpu0_ITLB TOTAL        ACCESS:   11826512 HIT:   11046707 MISS:     779805 MSHR_MERGE:     408907
cpu0->cpu0_ITLB LOAD         ACCESS:   11826512 HIT:   11046707 MISS:     779805 MSHR_MERGE:     408907
cpu0->cpu0_ITLB RFO          ACCESS:          0 HIT:          0 MISS:          0 MSHR_MERGE:          0
cpu0->cpu0_ITLB PREFETCH     ACCESS:          0 HIT:          0 MISS:          0 MSHR_MERGE:          0
cpu0->cpu0_ITLB WRITE        ACCESS:          0 HIT:          0 MISS:          0 MSHR_MERGE:          0
cpu0->cpu0_ITLB TRANSLATION  ACCESS:          0 HIT:          0 MISS:          0 MSHR_MERGE:          0
cpu0->cpu0_ITLB PREFETCH REQUESTED:          0 ISSUED:          0 USEFUL:          0 USELESS:          0
cpu0->cpu0_ITLB AVERAGE MISS LATENCY: 19.09 cycles
cpu0->cpu0_DTLB TOTAL        ACCESS:   23329721 HIT:   21671146 MISS:    1658575 MSHR_MERGE:     402714
cpu0->cpu0_DTLB LOAD         ACCESS:   23329721 HIT:   21671146 MISS:    1658575 MSHR_MERGE:     402714
cpu0->cpu0_DTLB RFO          ACCESS:          0 HIT:          0 MISS:          0 MSHR_MERGE:          0
cpu0->cpu0_DTLB PREFETCH     ACCESS:          0 HIT:          0 MISS:          0 MSHR_MERGE:          0
cpu0->cpu0_DTLB WRITE        ACCESS:          0 HIT:          0 MISS:          0 MSHR_MERGE:          0
cpu0->cpu0_DTLB TRANSLATION  ACCESS:          0 HIT:          0 MISS:          0 MSHR_MERGE:          0
cpu0->cpu0_DTLB PREFETCH REQUESTED:          0 ISSUED:          0 USEFUL:          0 USELESS:          0
cpu0->cpu0_DTLB AVERAGE MISS LATENCY: 16.26 cycles
cpu0->LLC TOTAL        ACCESS:    2245928 HIT:    2024297 MISS:     221631 MSHR_MERGE:          0
cpu0->LLC LOAD         ACCESS:    1564917 HIT:    1412363 MISS:     152554 MSHR_MERGE:          0
cpu0->LLC RFO          ACCESS:      94597 HIT:      70406 MISS:      24191 MSHR_MERGE:          0
cpu0->LLC PREFETCH     ACCESS:          0 HIT:          0 MISS:          0 MSHR_MERGE:          0
cpu0->LLC WRITE        ACCESS:     285376 HIT:     285096 MISS:        280 MSHR_MERGE:          0
cpu0->LLC TRANSLATION  ACCESS:     301038 HIT:     256432 MISS:      44606 MSHR_MERGE:          0
cpu0->LLC PREFETCH REQUESTED:          0 ISSUED:          0 USEFUL:          0 USELESS:          0
cpu0->LLC AVERAGE MISS LATENCY: 92.43 cycles

DRAM Statistics

Channel 0 RQ ROW_BUFFER_HIT:       4717
  ROW_BUFFER_MISS:     216633
  AVG DBUS CONGESTED CYCLE: 7.344
Channel 0 WQ ROW_BUFFER_HIT:      17704
  ROW_BUFFER_MISS:      92668
  FULL:          0
Channel 0 REFRESHES ISSUED:       8357

==== TLB→Cache/MEM Breakdown (ROI totals across all caches) ====

DTLB
  (case)                                L1I          L1D          L2C          LLC          MEM
  STLB hit → final level                  0       919863       258541       141692         7784
---------------------------------------------------------------
  STLB miss resolved @ L1D                0          581         8413        40331         8364
  STLB miss resolved @ L2C                0         1209        14151        39167         4142
  STLB miss resolved @ LLC                0          892        31534       133066        15798
  STLB miss resolved @ MEM                0          216         4829        21211        24765

ITLB
  (case)                                L1I          L1D          L2C          LLC          MEM
  STLB hit → final level              93429        18088       341227       123825         2733
---------------------------------------------------------------
  STLB miss resolved @ L1D                0           77         2858        13552          846
  STLB miss resolved @ L2C                0          128         5159        15559          368
  STLB miss resolved @ LLC                0          233        14612        87902         1583
  STLB miss resolved @ MEM                0           60         2176        10054         3433
[2025-09-17 06:12:04] END   suite=qualcomm_srv trace=srv609_ap (rc=0)
