[2025-09-17 11:27:36] START suite=qualcomm_srv trace=srv683_ap
CMD: ./bin/champsim -w 20000000 -i 100000000 /home/ho/itp_asplos25_AE/traces/qualcomm_srv/srv683_ap.champsimtrace.xz
[VMEM] WARNING: physical memory size is smaller than virtual memory size.

*** ChampSim Multicore Out-of-Order Simulator ***
Warmup Instructions: 20000000
Simulation Instructions: 100000000
Number of CPUs: 1
Page size: 4096

Off-chip DRAM Size: 16 GiB Channels: 1 Width: 64-bit Data Rate: 3205 MT/s
[BTB] WARNING: target of return is a lower address than the corresponding call. This is usually a problem with your trace.
[BTB] WARNING: target of return is a lower address than the corresponding call. This is usually a problem with your trace.
[BTB] WARNING: target of return is a lower address than the corresponding call. This is usually a problem with your trace.
[BTB] WARNING: target of return is a lower address than the corresponding call. This is usually a problem with your trace.
[BTB] WARNING: target of return is a lower address than the corresponding call. This is usually a problem with your trace.
[BTB] WARNING: target of return is a lower address than the corresponding call. This is usually a problem with your trace.
[BTB] WARNING: target of return is a lower address than the corresponding call. This is usually a problem with your trace.
[BTB] WARNING: target of return is a lower address than the corresponding call. This is usually a problem with your trace.
[BTB] WARNING: target of return is a lower address than the corresponding call. This is usually a problem with your trace.
[BTB] WARNING: target of return is a lower address than the corresponding call. This is usually a problem with your trace.
Heartbeat CPU 0 instructions: 10000001 cycles: 2584079 heartbeat IPC: 3.87 cumulative IPC: 3.87 (Simulation time: 00 hr 00 min 37 sec)
Heartbeat CPU 0 instructions: 20000002 cycles: 5006738 heartbeat IPC: 4.128 cumulative IPC: 3.995 (Simulation time: 00 hr 01 min 12 sec)
Warmup finished CPU 0 instructions: 20000002 cycles: 5006738 cumulative IPC: 3.995 (Simulation time: 00 hr 01 min 12 sec)
Warmup complete CPU 0 instructions: 20000002 cycles: 5006738 cumulative IPC: 3.995 (Simulation time: 00 hr 01 min 12 sec)
Heartbeat CPU 0 instructions: 30000002 cycles: 13181402 heartbeat IPC: 1.223 cumulative IPC: 1.223 (Simulation time: 00 hr 02 min 15 sec)
Heartbeat CPU 0 instructions: 40000002 cycles: 21357287 heartbeat IPC: 1.223 cumulative IPC: 1.223 (Simulation time: 00 hr 03 min 19 sec)
Heartbeat CPU 0 instructions: 50000002 cycles: 29517361 heartbeat IPC: 1.225 cumulative IPC: 1.224 (Simulation time: 00 hr 04 min 25 sec)
Heartbeat CPU 0 instructions: 60000003 cycles: 37663114 heartbeat IPC: 1.228 cumulative IPC: 1.225 (Simulation time: 00 hr 05 min 30 sec)
Heartbeat CPU 0 instructions: 70000007 cycles: 45814774 heartbeat IPC: 1.227 cumulative IPC: 1.225 (Simulation time: 00 hr 06 min 32 sec)
Heartbeat CPU 0 instructions: 80000008 cycles: 53966383 heartbeat IPC: 1.227 cumulative IPC: 1.225 (Simulation time: 00 hr 07 min 36 sec)
*** Reached end of trace: (0, "/home/ho/itp_asplos25_AE/traces/qualcomm_srv/srv683_ap.champsimtrace.xz")
Heartbeat CPU 0 instructions: 90000009 cycles: 62246866 heartbeat IPC: 1.208 cumulative IPC: 1.223 (Simulation time: 00 hr 08 min 46 sec)
Heartbeat CPU 0 instructions: 100000013 cycles: 70515530 heartbeat IPC: 1.209 cumulative IPC: 1.221 (Simulation time: 00 hr 09 min 53 sec)
Heartbeat CPU 0 instructions: 110000013 cycles: 78754561 heartbeat IPC: 1.214 cumulative IPC: 1.22 (Simulation time: 00 hr 10 min 53 sec)
Simulation finished CPU 0 instructions: 100000001 cycles: 82003001 cumulative IPC: 1.219 (Simulation time: 00 hr 11 min 54 sec)
Simulation complete CPU 0 instructions: 100000001 cycles: 82003001 cumulative IPC: 1.219 (Simulation time: 00 hr 11 min 54 sec)

ChampSim completed all CPUs

=== Simulation ===
CPU 0 runs /home/ho/itp_asplos25_AE/traces/qualcomm_srv/srv683_ap.champsimtrace.xz

Region of Interest Statistics

CPU 0 cumulative IPC: 1.219 instructions: 100000001 cycles: 82003001
CPU 0 Branch Prediction Accuracy: 92.59% MPKI: 13.15 Average ROB Occupancy at Mispredict: 29.76
Branch type MPKI
BRANCH_DIRECT_JUMP: 0.0851
BRANCH_INDIRECT: 0.3694
BRANCH_CONDITIONAL: 11.33
BRANCH_DIRECT_CALL: 0.4188
BRANCH_INDIRECT_CALL: 0.5426
BRANCH_RETURN: 0.4045


====Backend Stall Breakdown====
ROB_STALL: 42601
LQ_STALL: 0
SQ_STALL: 63413


====ROB Stall Breakdown====

== Average ==
ADDR_TRANS: -nan
REPLAY_LOAD: -nan
NON_REPLAY_LOAD: 9.197107

== Total ==
ADDR_TRANS: 0
REPLAY_LOAD: 0
NON_REPLAY_LOAD: 42601

== Counts ==
ADDR_TRANS: 0
REPLAY_LOAD: 0
NON_REPLAY_LOAD: 4632

cpu0->cpu0_STLB TOTAL        ACCESS:    2110529 HIT:    2109810 MISS:        719 MSHR_MERGE:          0
cpu0->cpu0_STLB LOAD         ACCESS:    2110529 HIT:    2109810 MISS:        719 MSHR_MERGE:          0
cpu0->cpu0_STLB RFO          ACCESS:          0 HIT:          0 MISS:          0 MSHR_MERGE:          0
cpu0->cpu0_STLB PREFETCH     ACCESS:          0 HIT:          0 MISS:          0 MSHR_MERGE:          0
cpu0->cpu0_STLB WRITE        ACCESS:          0 HIT:          0 MISS:          0 MSHR_MERGE:          0
cpu0->cpu0_STLB TRANSLATION  ACCESS:          0 HIT:          0 MISS:          0 MSHR_MERGE:          0
cpu0->cpu0_STLB PREFETCH REQUESTED:          0 ISSUED:          0 USEFUL:          0 USELESS:          0
cpu0->cpu0_STLB AVERAGE MISS LATENCY: 103.5 cycles
cpu0->cpu0_L2C TOTAL        ACCESS:    9411772 HIT:    8663033 MISS:     748739 MSHR_MERGE:          0
cpu0->cpu0_L2C LOAD         ACCESS:    7690038 HIT:    7012466 MISS:     677572 MSHR_MERGE:          0
cpu0->cpu0_L2C RFO          ACCESS:     580258 HIT:     530211 MISS:      50047 MSHR_MERGE:          0
cpu0->cpu0_L2C PREFETCH     ACCESS:          0 HIT:          0 MISS:          0 MSHR_MERGE:          0
cpu0->cpu0_L2C WRITE        ACCESS:    1140194 HIT:    1119825 MISS:      20369 MSHR_MERGE:          0
cpu0->cpu0_L2C TRANSLATION  ACCESS:       1282 HIT:        531 MISS:        751 MSHR_MERGE:          0
cpu0->cpu0_L2C PREFETCH REQUESTED:          0 ISSUED:          0 USEFUL:          0 USELESS:          0
cpu0->cpu0_L2C AVERAGE MISS LATENCY: 30.67 cycles
cpu0->cpu0_L1I TOTAL        ACCESS:   15859282 HIT:    7755702 MISS:    8103580 MSHR_MERGE:    2030450
cpu0->cpu0_L1I LOAD         ACCESS:   15859282 HIT:    7755702 MISS:    8103580 MSHR_MERGE:    2030450
cpu0->cpu0_L1I RFO          ACCESS:          0 HIT:          0 MISS:          0 MSHR_MERGE:          0
cpu0->cpu0_L1I PREFETCH     ACCESS:          0 HIT:          0 MISS:          0 MSHR_MERGE:          0
cpu0->cpu0_L1I WRITE        ACCESS:          0 HIT:          0 MISS:          0 MSHR_MERGE:          0
cpu0->cpu0_L1I TRANSLATION  ACCESS:          0 HIT:          0 MISS:          0 MSHR_MERGE:          0
cpu0->cpu0_L1I PREFETCH REQUESTED:          0 ISSUED:          0 USEFUL:          0 USELESS:          0
cpu0->cpu0_L1I AVERAGE MISS LATENCY: 13.67 cycles
cpu0->cpu0_L1D TOTAL        ACCESS:   30482617 HIT:   26638526 MISS:    3844091 MSHR_MERGE:    1645643
cpu0->cpu0_L1D LOAD         ACCESS:   16638468 HIT:   14554880 MISS:    2083588 MSHR_MERGE:     466680
cpu0->cpu0_L1D RFO          ACCESS:          0 HIT:          0 MISS:          0 MSHR_MERGE:          0
cpu0->cpu0_L1D PREFETCH     ACCESS:          0 HIT:          0 MISS:          0 MSHR_MERGE:          0
cpu0->cpu0_L1D WRITE        ACCESS:   13842701 HIT:   12083510 MISS:    1759191 MSHR_MERGE:    1178933
cpu0->cpu0_L1D TRANSLATION  ACCESS:       1448 HIT:        136 MISS:       1312 MSHR_MERGE:         30
cpu0->cpu0_L1D PREFETCH REQUESTED:          0 ISSUED:          0 USEFUL:          0 USELESS:          0
cpu0->cpu0_L1D AVERAGE MISS LATENCY: 15.94 cycles
cpu0->cpu0_ITLB TOTAL        ACCESS:   12992003 HIT:   10718064 MISS:    2273939 MSHR_MERGE:    1147841
cpu0->cpu0_ITLB LOAD         ACCESS:   12992003 HIT:   10718064 MISS:    2273939 MSHR_MERGE:    1147841
cpu0->cpu0_ITLB RFO          ACCESS:          0 HIT:          0 MISS:          0 MSHR_MERGE:          0
cpu0->cpu0_ITLB PREFETCH     ACCESS:          0 HIT:          0 MISS:          0 MSHR_MERGE:          0
cpu0->cpu0_ITLB WRITE        ACCESS:          0 HIT:          0 MISS:          0 MSHR_MERGE:          0
cpu0->cpu0_ITLB TRANSLATION  ACCESS:          0 HIT:          0 MISS:          0 MSHR_MERGE:          0
cpu0->cpu0_ITLB PREFETCH REQUESTED:          0 ISSUED:          0 USEFUL:          0 USELESS:          0
cpu0->cpu0_ITLB AVERAGE MISS LATENCY: 5.011 cycles
cpu0->cpu0_DTLB TOTAL        ACCESS:   28958308 HIT:   27651473 MISS:    1306835 MSHR_MERGE:     322404
cpu0->cpu0_DTLB LOAD         ACCESS:   28958308 HIT:   27651473 MISS:    1306835 MSHR_MERGE:     322404
cpu0->cpu0_DTLB RFO          ACCESS:          0 HIT:          0 MISS:          0 MSHR_MERGE:          0
cpu0->cpu0_DTLB PREFETCH     ACCESS:          0 HIT:          0 MISS:          0 MSHR_MERGE:          0
cpu0->cpu0_DTLB WRITE        ACCESS:          0 HIT:          0 MISS:          0 MSHR_MERGE:          0
cpu0->cpu0_DTLB TRANSLATION  ACCESS:          0 HIT:          0 MISS:          0 MSHR_MERGE:          0
cpu0->cpu0_DTLB PREFETCH REQUESTED:          0 ISSUED:          0 USEFUL:          0 USELESS:          0
cpu0->cpu0_DTLB AVERAGE MISS LATENCY: 5.078 cycles
cpu0->LLC TOTAL        ACCESS:     860797 HIT:     851117 MISS:       9680 MSHR_MERGE:          0
cpu0->LLC LOAD         ACCESS:     677572 HIT:     668102 MISS:       9470 MSHR_MERGE:          0
cpu0->LLC RFO          ACCESS:      50047 HIT:      50046 MISS:          1 MSHR_MERGE:          0
cpu0->LLC PREFETCH     ACCESS:          0 HIT:          0 MISS:          0 MSHR_MERGE:          0
cpu0->LLC WRITE        ACCESS:     132427 HIT:     132427 MISS:          0 MSHR_MERGE:          0
cpu0->LLC TRANSLATION  ACCESS:        751 HIT:        542 MISS:        209 MSHR_MERGE:          0
cpu0->LLC PREFETCH REQUESTED:          0 ISSUED:          0 USEFUL:          0 USELESS:          0
cpu0->LLC AVERAGE MISS LATENCY: 116.3 cycles

DRAM Statistics

Channel 0 RQ ROW_BUFFER_HIT:         17
  ROW_BUFFER_MISS:       9663
  AVG DBUS CONGESTED CYCLE: 2.993
Channel 0 WQ ROW_BUFFER_HIT:          0
  ROW_BUFFER_MISS:          5
  FULL:          0
Channel 0 REFRESHES ISSUED:       6833

==== TLB→Cache/MEM Breakdown (ROI totals across all caches) ====

DTLB
  (case)                                L1I          L1D          L2C          LLC          MEM
  STLB hit → final level                  0       546873       526487        63024          670
---------------------------------------------------------------
  STLB miss resolved @ L1D                0            2           82           49           21
  STLB miss resolved @ L2C                0           63          341          213           37
  STLB miss resolved @ LLC                0           23          164          335           38
  STLB miss resolved @ MEM                0            0           90          146           89

ITLB
  (case)                                L1I          L1D          L2C          LLC          MEM
  STLB hit → final level             195433        56282      1537417       116681            3
---------------------------------------------------------------
  STLB miss resolved @ L1D                0            0            4            4            0
  STLB miss resolved @ L2C                0            1            1            4            0
  STLB miss resolved @ LLC                0            6           12           38            0
  STLB miss resolved @ MEM                0            0            1           18            0
[2025-09-17 11:39:31] END   suite=qualcomm_srv trace=srv683_ap (rc=0)
