[2025-09-16 23:47:25] START suite=qualcomm_srv trace=srv681_ap
CMD: ./bin/champsim -w 20000000 -i 100000000 /home/ho/itp_asplos25_AE/traces/qualcomm_srv/srv681_ap.champsimtrace.xz
[VMEM] WARNING: physical memory size is smaller than virtual memory size.

*** ChampSim Multicore Out-of-Order Simulator ***
Warmup Instructions: 20000000
Simulation Instructions: 100000000
Number of CPUs: 1
Page size: 4096

Off-chip DRAM Size: 16 GiB Channels: 1 Width: 64-bit Data Rate: 3205 MT/s
[BTB] WARNING: target of return is a lower address than the corresponding call. This is usually a problem with your trace.
[BTB] WARNING: target of return is a lower address than the corresponding call. This is usually a problem with your trace.
[BTB] WARNING: target of return is a lower address than the corresponding call. This is usually a problem with your trace.
[BTB] WARNING: target of return is a lower address than the corresponding call. This is usually a problem with your trace.
[BTB] WARNING: target of return is a lower address than the corresponding call. This is usually a problem with your trace.
[BTB] WARNING: target of return is a lower address than the corresponding call. This is usually a problem with your trace.
[BTB] WARNING: target of return is a lower address than the corresponding call. This is usually a problem with your trace.
[BTB] WARNING: target of return is a lower address than the corresponding call. This is usually a problem with your trace.
[BTB] WARNING: target of return is a lower address than the corresponding call. This is usually a problem with your trace.
[BTB] WARNING: target of return is a lower address than the corresponding call. This is usually a problem with your trace.
Heartbeat CPU 0 instructions: 10000003 cycles: 2652279 heartbeat IPC: 3.77 cumulative IPC: 3.77 (Simulation time: 00 hr 00 min 38 sec)
Warmup finished CPU 0 instructions: 20000002 cycles: 5084361 cumulative IPC: 3.934 (Simulation time: 00 hr 01 min 15 sec)
Warmup complete CPU 0 instructions: 20000002 cycles: 5084361 cumulative IPC: 3.934 (Simulation time: 00 hr 01 min 15 sec)
Heartbeat CPU 0 instructions: 20000007 cycles: 5084362 heartbeat IPC: 4.112 cumulative IPC: 5 (Simulation time: 00 hr 01 min 15 sec)
Heartbeat CPU 0 instructions: 30000011 cycles: 13552934 heartbeat IPC: 1.181 cumulative IPC: 1.181 (Simulation time: 00 hr 02 min 21 sec)
Heartbeat CPU 0 instructions: 40000011 cycles: 22291938 heartbeat IPC: 1.144 cumulative IPC: 1.162 (Simulation time: 00 hr 03 min 26 sec)
Heartbeat CPU 0 instructions: 50000013 cycles: 30881479 heartbeat IPC: 1.164 cumulative IPC: 1.163 (Simulation time: 00 hr 04 min 35 sec)
Heartbeat CPU 0 instructions: 60000017 cycles: 39359440 heartbeat IPC: 1.18 cumulative IPC: 1.167 (Simulation time: 00 hr 05 min 35 sec)
Heartbeat CPU 0 instructions: 70000018 cycles: 47983069 heartbeat IPC: 1.16 cumulative IPC: 1.166 (Simulation time: 00 hr 06 min 41 sec)
Heartbeat CPU 0 instructions: 80000022 cycles: 56597881 heartbeat IPC: 1.161 cumulative IPC: 1.165 (Simulation time: 00 hr 07 min 50 sec)
Heartbeat CPU 0 instructions: 90000024 cycles: 65040031 heartbeat IPC: 1.185 cumulative IPC: 1.168 (Simulation time: 00 hr 08 min 59 sec)
Heartbeat CPU 0 instructions: 100000027 cycles: 73566931 heartbeat IPC: 1.173 cumulative IPC: 1.168 (Simulation time: 00 hr 10 min 03 sec)
*** Reached end of trace: (0, "/home/ho/itp_asplos25_AE/traces/qualcomm_srv/srv681_ap.champsimtrace.xz")
Heartbeat CPU 0 instructions: 110000030 cycles: 82153433 heartbeat IPC: 1.165 cumulative IPC: 1.168 (Simulation time: 00 hr 11 min 08 sec)
Simulation finished CPU 0 instructions: 100000000 cycles: 85753300 cumulative IPC: 1.166 (Simulation time: 00 hr 12 min 17 sec)
Simulation complete CPU 0 instructions: 100000000 cycles: 85753300 cumulative IPC: 1.166 (Simulation time: 00 hr 12 min 17 sec)

ChampSim completed all CPUs

=== Simulation ===
CPU 0 runs /home/ho/itp_asplos25_AE/traces/qualcomm_srv/srv681_ap.champsimtrace.xz

Region of Interest Statistics

CPU 0 cumulative IPC: 1.166 instructions: 100000000 cycles: 85753300
CPU 0 Branch Prediction Accuracy: 91.3% MPKI: 15.35 Average ROB Occupancy at Mispredict: 27
Branch type MPKI
BRANCH_DIRECT_JUMP: 0.2845
BRANCH_INDIRECT: 0.4167
BRANCH_CONDITIONAL: 12.93
BRANCH_DIRECT_CALL: 0.7058
BRANCH_INDIRECT_CALL: 0.5052
BRANCH_RETURN: 0.5063


====Backend Stall Breakdown====
ROB_STALL: 236522
LQ_STALL: 0
SQ_STALL: 551054


====ROB Stall Breakdown====

== Average ==
ADDR_TRANS: 138.53969
REPLAY_LOAD: 81.25466
NON_REPLAY_LOAD: 20.606642

== Total ==
ADDR_TRANS: 17456
REPLAY_LOAD: 13082
NON_REPLAY_LOAD: 205984

== Counts ==
ADDR_TRANS: 126
REPLAY_LOAD: 161
NON_REPLAY_LOAD: 9996

cpu0->cpu0_STLB TOTAL        ACCESS:    1784502 HIT:    1778451 MISS:       6051 MSHR_MERGE:          0
cpu0->cpu0_STLB LOAD         ACCESS:    1784502 HIT:    1778451 MISS:       6051 MSHR_MERGE:          0
cpu0->cpu0_STLB RFO          ACCESS:          0 HIT:          0 MISS:          0 MSHR_MERGE:          0
cpu0->cpu0_STLB PREFETCH     ACCESS:          0 HIT:          0 MISS:          0 MSHR_MERGE:          0
cpu0->cpu0_STLB WRITE        ACCESS:          0 HIT:          0 MISS:          0 MSHR_MERGE:          0
cpu0->cpu0_STLB TRANSLATION  ACCESS:          0 HIT:          0 MISS:          0 MSHR_MERGE:          0
cpu0->cpu0_STLB PREFETCH REQUESTED:          0 ISSUED:          0 USEFUL:          0 USELESS:          0
cpu0->cpu0_STLB AVERAGE MISS LATENCY: 184.5 cycles
cpu0->cpu0_L2C TOTAL        ACCESS:    7765003 HIT:    6867972 MISS:     897031 MSHR_MERGE:          0
cpu0->cpu0_L2C LOAD         ACCESS:    6273687 HIT:    5525024 MISS:     748663 MSHR_MERGE:          0
cpu0->cpu0_L2C RFO          ACCESS:     547388 HIT:     417438 MISS:     129950 MSHR_MERGE:          0
cpu0->cpu0_L2C PREFETCH     ACCESS:          0 HIT:          0 MISS:          0 MSHR_MERGE:          0
cpu0->cpu0_L2C WRITE        ACCESS:     933010 HIT:     924135 MISS:       8875 MSHR_MERGE:          0
cpu0->cpu0_L2C TRANSLATION  ACCESS:      10918 HIT:       1375 MISS:       9543 MSHR_MERGE:          0
cpu0->cpu0_L2C PREFETCH REQUESTED:          0 ISSUED:          0 USEFUL:          0 USELESS:          0
cpu0->cpu0_L2C AVERAGE MISS LATENCY: 40.02 cycles
cpu0->cpu0_L1I TOTAL        ACCESS:   14468346 HIT:    8076719 MISS:    6391627 MSHR_MERGE:    1528319
cpu0->cpu0_L1I LOAD         ACCESS:   14468346 HIT:    8076719 MISS:    6391627 MSHR_MERGE:    1528319
cpu0->cpu0_L1I RFO          ACCESS:          0 HIT:          0 MISS:          0 MSHR_MERGE:          0
cpu0->cpu0_L1I PREFETCH     ACCESS:          0 HIT:          0 MISS:          0 MSHR_MERGE:          0
cpu0->cpu0_L1I WRITE        ACCESS:          0 HIT:          0 MISS:          0 MSHR_MERGE:          0
cpu0->cpu0_L1I TRANSLATION  ACCESS:          0 HIT:          0 MISS:          0 MSHR_MERGE:          0
cpu0->cpu0_L1I PREFETCH REQUESTED:          0 ISSUED:          0 USEFUL:          0 USELESS:          0
cpu0->cpu0_L1I AVERAGE MISS LATENCY: 14.26 cycles
cpu0->cpu0_L1D TOTAL        ACCESS:   29953077 HIT:   26582474 MISS:    3370603 MSHR_MERGE:    1401854
cpu0->cpu0_L1D LOAD         ACCESS:   16923111 HIT:   15164713 MISS:    1758398 MSHR_MERGE:     347981
cpu0->cpu0_L1D RFO          ACCESS:          0 HIT:          0 MISS:          0 MSHR_MERGE:          0
cpu0->cpu0_L1D PREFETCH     ACCESS:          0 HIT:          0 MISS:          0 MSHR_MERGE:          0
cpu0->cpu0_L1D WRITE        ACCESS:   13017412 HIT:   11416138 MISS:    1601274 MSHR_MERGE:    1053860
cpu0->cpu0_L1D TRANSLATION  ACCESS:      12554 HIT:       1623 MISS:      10931 MSHR_MERGE:         13
cpu0->cpu0_L1D PREFETCH REQUESTED:          0 ISSUED:          0 USEFUL:          0 USELESS:          0
cpu0->cpu0_L1D AVERAGE MISS LATENCY: 23.02 cycles
cpu0->cpu0_ITLB TOTAL        ACCESS:   12109871 HIT:   10375013 MISS:    1734858 MSHR_MERGE:     870675
cpu0->cpu0_ITLB LOAD         ACCESS:   12109871 HIT:   10375013 MISS:    1734858 MSHR_MERGE:     870675
cpu0->cpu0_ITLB RFO          ACCESS:          0 HIT:          0 MISS:          0 MSHR_MERGE:          0
cpu0->cpu0_ITLB PREFETCH     ACCESS:          0 HIT:          0 MISS:          0 MSHR_MERGE:          0
cpu0->cpu0_ITLB WRITE        ACCESS:          0 HIT:          0 MISS:          0 MSHR_MERGE:          0
cpu0->cpu0_ITLB TRANSLATION  ACCESS:          0 HIT:          0 MISS:          0 MSHR_MERGE:          0
cpu0->cpu0_ITLB PREFETCH REQUESTED:          0 ISSUED:          0 USEFUL:          0 USELESS:          0
cpu0->cpu0_ITLB AVERAGE MISS LATENCY: 5.142 cycles
cpu0->cpu0_DTLB TOTAL        ACCESS:   28337366 HIT:   27108112 MISS:    1229254 MSHR_MERGE:     308935
cpu0->cpu0_DTLB LOAD         ACCESS:   28337366 HIT:   27108112 MISS:    1229254 MSHR_MERGE:     308935
cpu0->cpu0_DTLB RFO          ACCESS:          0 HIT:          0 MISS:          0 MSHR_MERGE:          0
cpu0->cpu0_DTLB PREFETCH     ACCESS:          0 HIT:          0 MISS:          0 MSHR_MERGE:          0
cpu0->cpu0_DTLB WRITE        ACCESS:          0 HIT:          0 MISS:          0 MSHR_MERGE:          0
cpu0->cpu0_DTLB TRANSLATION  ACCESS:          0 HIT:          0 MISS:          0 MSHR_MERGE:          0
cpu0->cpu0_DTLB PREFETCH REQUESTED:          0 ISSUED:          0 USEFUL:          0 USELESS:          0
cpu0->cpu0_DTLB AVERAGE MISS LATENCY: 6.087 cycles
cpu0->LLC TOTAL        ACCESS:    1086671 HIT:    1012900 MISS:      73771 MSHR_MERGE:          0
cpu0->LLC LOAD         ACCESS:     748663 HIT:     720612 MISS:      28051 MSHR_MERGE:          0
cpu0->LLC RFO          ACCESS:     129950 HIT:      89188 MISS:      40762 MSHR_MERGE:          0
cpu0->LLC PREFETCH     ACCESS:          0 HIT:          0 MISS:          0 MSHR_MERGE:          0
cpu0->LLC WRITE        ACCESS:     198515 HIT:     198171 MISS:        344 MSHR_MERGE:          0
cpu0->LLC TRANSLATION  ACCESS:       9543 HIT:       4929 MISS:       4614 MSHR_MERGE:          0
cpu0->LLC PREFETCH REQUESTED:          0 ISSUED:          0 USEFUL:          0 USELESS:          0
cpu0->LLC AVERAGE MISS LATENCY: 128.1 cycles

DRAM Statistics

Channel 0 RQ ROW_BUFFER_HIT:       3566
  ROW_BUFFER_MISS:      69854
  AVG DBUS CONGESTED CYCLE: 3.708
Channel 0 WQ ROW_BUFFER_HIT:       2195
  ROW_BUFFER_MISS:      37567
  FULL:          0
Channel 0 REFRESHES ISSUED:       7146

==== TLB→Cache/MEM Breakdown (ROI totals across all caches) ====

DTLB
  (case)                                L1I          L1D          L2C          LLC          MEM
  STLB hit → final level                  0       538185       419889        77993         5206
---------------------------------------------------------------
  STLB miss resolved @ L1D                0            1          276          649          270
  STLB miss resolved @ L2C                0          176          221          641          188
  STLB miss resolved @ LLC                0          492          578         2574          997
  STLB miss resolved @ MEM                0            6          318         2139         2450

ITLB
  (case)                                L1I          L1D          L2C          LLC          MEM
  STLB hit → final level             153133        50764      1166412       108181          624
---------------------------------------------------------------
  STLB miss resolved @ L1D                0            1          297          211           51
  STLB miss resolved @ L2C                0          278          406          128            3
  STLB miss resolved @ LLC                0           65          298          673           93
  STLB miss resolved @ MEM                0            3          107          356          168
[2025-09-16 23:59:43] END   suite=qualcomm_srv trace=srv681_ap (rc=0)
