[2025-09-17 09:38:05] START suite=qualcomm_srv trace=srv729_ap
CMD: ./bin/champsim -w 20000000 -i 100000000 /home/ho/itp_asplos25_AE/traces/qualcomm_srv/srv729_ap.champsimtrace.xz
[VMEM] WARNING: physical memory size is smaller than virtual memory size.

*** ChampSim Multicore Out-of-Order Simulator ***
Warmup Instructions: 20000000
Simulation Instructions: 100000000
Number of CPUs: 1
Page size: 4096

Off-chip DRAM Size: 16 GiB Channels: 1 Width: 64-bit Data Rate: 3205 MT/s
[BTB] WARNING: target of return is a lower address than the corresponding call. This is usually a problem with your trace.
[BTB] WARNING: target of return is a lower address than the corresponding call. This is usually a problem with your trace.
[BTB] WARNING: target of return is a lower address than the corresponding call. This is usually a problem with your trace.
[BTB] WARNING: target of return is a lower address than the corresponding call. This is usually a problem with your trace.
[BTB] WARNING: target of return is a lower address than the corresponding call. This is usually a problem with your trace.
[BTB] WARNING: target of return is a lower address than the corresponding call. This is usually a problem with your trace.
[BTB] WARNING: target of return is a lower address than the corresponding call. This is usually a problem with your trace.
[BTB] WARNING: target of return is a lower address than the corresponding call. This is usually a problem with your trace.
[BTB] WARNING: target of return is a lower address than the corresponding call. This is usually a problem with your trace.
[BTB] WARNING: target of return is a lower address than the corresponding call. This is usually a problem with your trace.
Heartbeat CPU 0 instructions: 10000004 cycles: 2638587 heartbeat IPC: 3.79 cumulative IPC: 3.79 (Simulation time: 00 hr 00 min 40 sec)
Warmup finished CPU 0 instructions: 20000003 cycles: 5057941 cumulative IPC: 3.954 (Simulation time: 00 hr 01 min 18 sec)
Warmup complete CPU 0 instructions: 20000003 cycles: 5057941 cumulative IPC: 3.954 (Simulation time: 00 hr 01 min 18 sec)
Heartbeat CPU 0 instructions: 20000008 cycles: 5057942 heartbeat IPC: 4.133 cumulative IPC: 5 (Simulation time: 00 hr 01 min 18 sec)
Heartbeat CPU 0 instructions: 30000012 cycles: 14310723 heartbeat IPC: 1.081 cumulative IPC: 1.081 (Simulation time: 00 hr 02 min 32 sec)
Heartbeat CPU 0 instructions: 40000013 cycles: 23557729 heartbeat IPC: 1.081 cumulative IPC: 1.081 (Simulation time: 00 hr 03 min 39 sec)
Heartbeat CPU 0 instructions: 50000013 cycles: 32670590 heartbeat IPC: 1.097 cumulative IPC: 1.086 (Simulation time: 00 hr 04 min 51 sec)
Heartbeat CPU 0 instructions: 60000014 cycles: 41874603 heartbeat IPC: 1.086 cumulative IPC: 1.086 (Simulation time: 00 hr 06 min 01 sec)
Heartbeat CPU 0 instructions: 70000016 cycles: 50960184 heartbeat IPC: 1.101 cumulative IPC: 1.089 (Simulation time: 00 hr 07 min 13 sec)
Heartbeat CPU 0 instructions: 80000017 cycles: 60138729 heartbeat IPC: 1.089 cumulative IPC: 1.089 (Simulation time: 00 hr 08 min 26 sec)
Heartbeat CPU 0 instructions: 90000018 cycles: 69223508 heartbeat IPC: 1.101 cumulative IPC: 1.091 (Simulation time: 00 hr 09 min 39 sec)
Heartbeat CPU 0 instructions: 100000018 cycles: 78344421 heartbeat IPC: 1.096 cumulative IPC: 1.092 (Simulation time: 00 hr 10 min 48 sec)
*** Reached end of trace: (0, "/home/ho/itp_asplos25_AE/traces/qualcomm_srv/srv729_ap.champsimtrace.xz")
Heartbeat CPU 0 instructions: 110000019 cycles: 87545834 heartbeat IPC: 1.087 cumulative IPC: 1.091 (Simulation time: 00 hr 11 min 59 sec)
Simulation finished CPU 0 instructions: 100000002 cycles: 91678566 cumulative IPC: 1.091 (Simulation time: 00 hr 13 min 04 sec)
Simulation complete CPU 0 instructions: 100000002 cycles: 91678566 cumulative IPC: 1.091 (Simulation time: 00 hr 13 min 04 sec)

ChampSim completed all CPUs

=== Simulation ===
CPU 0 runs /home/ho/itp_asplos25_AE/traces/qualcomm_srv/srv729_ap.champsimtrace.xz

Region of Interest Statistics

CPU 0 cumulative IPC: 1.091 instructions: 100000002 cycles: 91678566
CPU 0 Branch Prediction Accuracy: 90.74% MPKI: 16.28 Average ROB Occupancy at Mispredict: 24.8
Branch type MPKI
BRANCH_DIRECT_JUMP: 0.3886
BRANCH_INDIRECT: 0.4166
BRANCH_CONDITIONAL: 13.28
BRANCH_DIRECT_CALL: 0.9519
BRANCH_INDIRECT_CALL: 0.6053
BRANCH_RETURN: 0.6378


====Backend Stall Breakdown====
ROB_STALL: 119211
LQ_STALL: 0
SQ_STALL: 529891


====ROB Stall Breakdown====

== Average ==
ADDR_TRANS: 159.4
REPLAY_LOAD: 118.19753
NON_REPLAY_LOAD: 33.095608

== Total ==
ADDR_TRANS: 7173
REPLAY_LOAD: 9574
NON_REPLAY_LOAD: 102464

== Counts ==
ADDR_TRANS: 45
REPLAY_LOAD: 81
NON_REPLAY_LOAD: 3096

cpu0->cpu0_STLB TOTAL        ACCESS:    1859574 HIT:    1855081 MISS:       4493 MSHR_MERGE:          0
cpu0->cpu0_STLB LOAD         ACCESS:    1859574 HIT:    1855081 MISS:       4493 MSHR_MERGE:          0
cpu0->cpu0_STLB RFO          ACCESS:          0 HIT:          0 MISS:          0 MSHR_MERGE:          0
cpu0->cpu0_STLB PREFETCH     ACCESS:          0 HIT:          0 MISS:          0 MSHR_MERGE:          0
cpu0->cpu0_STLB WRITE        ACCESS:          0 HIT:          0 MISS:          0 MSHR_MERGE:          0
cpu0->cpu0_STLB TRANSLATION  ACCESS:          0 HIT:          0 MISS:          0 MSHR_MERGE:          0
cpu0->cpu0_STLB PREFETCH REQUESTED:          0 ISSUED:          0 USEFUL:          0 USELESS:          0
cpu0->cpu0_STLB AVERAGE MISS LATENCY: 219.5 cycles
cpu0->cpu0_L2C TOTAL        ACCESS:    8286271 HIT:    7136687 MISS:    1149584 MSHR_MERGE:          0
cpu0->cpu0_L2C LOAD         ACCESS:    6734175 HIT:    5812453 MISS:     921722 MSHR_MERGE:          0
cpu0->cpu0_L2C RFO          ACCESS:     557057 HIT:     363414 MISS:     193643 MSHR_MERGE:          0
cpu0->cpu0_L2C PREFETCH     ACCESS:          0 HIT:          0 MISS:          0 MSHR_MERGE:          0
cpu0->cpu0_L2C WRITE        ACCESS:     986827 HIT:     960194 MISS:      26633 MSHR_MERGE:          0
cpu0->cpu0_L2C TRANSLATION  ACCESS:       8212 HIT:        626 MISS:       7586 MSHR_MERGE:          0
cpu0->cpu0_L2C PREFETCH REQUESTED:          0 ISSUED:          0 USEFUL:          0 USELESS:          0
cpu0->cpu0_L2C AVERAGE MISS LATENCY: 34.9 cycles
cpu0->cpu0_L1I TOTAL        ACCESS:   15002663 HIT:    8068692 MISS:    6933971 MSHR_MERGE:    1626020
cpu0->cpu0_L1I LOAD         ACCESS:   15002663 HIT:    8068692 MISS:    6933971 MSHR_MERGE:    1626020
cpu0->cpu0_L1I RFO          ACCESS:          0 HIT:          0 MISS:          0 MSHR_MERGE:          0
cpu0->cpu0_L1I PREFETCH     ACCESS:          0 HIT:          0 MISS:          0 MSHR_MERGE:          0
cpu0->cpu0_L1I WRITE        ACCESS:          0 HIT:          0 MISS:          0 MSHR_MERGE:          0
cpu0->cpu0_L1I TRANSLATION  ACCESS:          0 HIT:          0 MISS:          0 MSHR_MERGE:          0
cpu0->cpu0_L1I PREFETCH REQUESTED:          0 ISSUED:          0 USEFUL:          0 USELESS:          0
cpu0->cpu0_L1I AVERAGE MISS LATENCY: 15.15 cycles
cpu0->cpu0_L1D TOTAL        ACCESS:   30542535 HIT:   27043195 MISS:    3499340 MSHR_MERGE:    1507842
cpu0->cpu0_L1D LOAD         ACCESS:   17182859 HIT:   15375876 MISS:    1806983 MSHR_MERGE:     380755
cpu0->cpu0_L1D RFO          ACCESS:          0 HIT:          0 MISS:          0 MSHR_MERGE:          0
cpu0->cpu0_L1D PREFETCH     ACCESS:          0 HIT:          0 MISS:          0 MSHR_MERGE:          0
cpu0->cpu0_L1D WRITE        ACCESS:   13350454 HIT:   11666406 MISS:    1684048 MSHR_MERGE:    1126990
cpu0->cpu0_L1D TRANSLATION  ACCESS:       9222 HIT:        913 MISS:       8309 MSHR_MERGE:         97
cpu0->cpu0_L1D PREFETCH REQUESTED:          0 ISSUED:          0 USEFUL:          0 USELESS:          0
cpu0->cpu0_L1D AVERAGE MISS LATENCY: 21.97 cycles
cpu0->cpu0_ITLB TOTAL        ACCESS:   12448063 HIT:   10539095 MISS:    1908968 MSHR_MERGE:     959984
cpu0->cpu0_ITLB LOAD         ACCESS:   12448063 HIT:   10539095 MISS:    1908968 MSHR_MERGE:     959984
cpu0->cpu0_ITLB RFO          ACCESS:          0 HIT:          0 MISS:          0 MSHR_MERGE:          0
cpu0->cpu0_ITLB PREFETCH     ACCESS:          0 HIT:          0 MISS:          0 MSHR_MERGE:          0
cpu0->cpu0_ITLB WRITE        ACCESS:          0 HIT:          0 MISS:          0 MSHR_MERGE:          0
cpu0->cpu0_ITLB TRANSLATION  ACCESS:          0 HIT:          0 MISS:          0 MSHR_MERGE:          0
cpu0->cpu0_ITLB PREFETCH REQUESTED:          0 ISSUED:          0 USEFUL:          0 USELESS:          0
cpu0->cpu0_ITLB AVERAGE MISS LATENCY: 5.096 cycles
cpu0->cpu0_DTLB TOTAL        ACCESS:   28960788 HIT:   27736562 MISS:    1224226 MSHR_MERGE:     313636
cpu0->cpu0_DTLB LOAD         ACCESS:   28960788 HIT:   27736562 MISS:    1224226 MSHR_MERGE:     313636
cpu0->cpu0_DTLB RFO          ACCESS:          0 HIT:          0 MISS:          0 MSHR_MERGE:          0
cpu0->cpu0_DTLB PREFETCH     ACCESS:          0 HIT:          0 MISS:          0 MSHR_MERGE:          0
cpu0->cpu0_DTLB WRITE        ACCESS:          0 HIT:          0 MISS:          0 MSHR_MERGE:          0
cpu0->cpu0_DTLB TRANSLATION  ACCESS:          0 HIT:          0 MISS:          0 MSHR_MERGE:          0
cpu0->cpu0_DTLB PREFETCH REQUESTED:          0 ISSUED:          0 USEFUL:          0 USELESS:          0
cpu0->cpu0_DTLB AVERAGE MISS LATENCY: 5.989 cycles
cpu0->LLC TOTAL        ACCESS:    1403013 HIT:    1348631 MISS:      54382 MSHR_MERGE:          0
cpu0->LLC LOAD         ACCESS:     921721 HIT:     901209 MISS:      20512 MSHR_MERGE:          0
cpu0->LLC RFO          ACCESS:     193643 HIT:     164187 MISS:      29456 MSHR_MERGE:          0
cpu0->LLC PREFETCH     ACCESS:          0 HIT:          0 MISS:          0 MSHR_MERGE:          0
cpu0->LLC WRITE        ACCESS:     280063 HIT:     279863 MISS:        200 MSHR_MERGE:          0
cpu0->LLC TRANSLATION  ACCESS:       7586 HIT:       3372 MISS:       4214 MSHR_MERGE:          0
cpu0->LLC PREFETCH REQUESTED:          0 ISSUED:          0 USEFUL:          0 USELESS:          0
cpu0->LLC AVERAGE MISS LATENCY: 120.3 cycles

DRAM Statistics

Channel 0 RQ ROW_BUFFER_HIT:       3797
  ROW_BUFFER_MISS:      50382
  AVG DBUS CONGESTED CYCLE: 3.507
Channel 0 WQ ROW_BUFFER_HIT:       1062
  ROW_BUFFER_MISS:      22215
  FULL:          0
Channel 0 REFRESHES ISSUED:       7640

==== TLB→Cache/MEM Breakdown (ROI totals across all caches) ====

DTLB
  (case)                                L1I          L1D          L2C          LLC          MEM
  STLB hit → final level                  0       517249       438862        75813         2611
---------------------------------------------------------------
  STLB miss resolved @ L1D                0            3          112          427          315
  STLB miss resolved @ L2C                0           55          121          298           90
  STLB miss resolved @ LLC                0          139          331         1658          662
  STLB miss resolved @ MEM                0            2          339         2223         2268

ITLB
  (case)                                L1I          L1D          L2C          LLC          MEM
  STLB hit → final level             163095        53359      1246509       155383          329
---------------------------------------------------------------
  STLB miss resolved @ L1D                0            1           32          167           40
  STLB miss resolved @ L2C                0           56           48          111           10
  STLB miss resolved @ LLC                0           45          199          536           71
  STLB miss resolved @ MEM                0            2           89          260          136
[2025-09-17 09:51:10] END   suite=qualcomm_srv trace=srv729_ap (rc=0)
