[2025-09-17 13:07:34] START suite=qualcomm_srv trace=srv769_ap
CMD: ./bin/champsim -w 20000000 -i 100000000 /home/ho/itp_asplos25_AE/traces/qualcomm_srv/srv769_ap.champsimtrace.xz
[VMEM] WARNING: physical memory size is smaller than virtual memory size.

*** ChampSim Multicore Out-of-Order Simulator ***
Warmup Instructions: 20000000
Simulation Instructions: 100000000
Number of CPUs: 1
Page size: 4096

Off-chip DRAM Size: 16 GiB Channels: 1 Width: 64-bit Data Rate: 3205 MT/s
[BTB] WARNING: target of return is a lower address than the corresponding call. This is usually a problem with your trace.
[BTB] WARNING: target of return is a lower address than the corresponding call. This is usually a problem with your trace.
[BTB] WARNING: target of return is a lower address than the corresponding call. This is usually a problem with your trace.
[BTB] WARNING: target of return is a lower address than the corresponding call. This is usually a problem with your trace.
[BTB] WARNING: target of return is a lower address than the corresponding call. This is usually a problem with your trace.
[BTB] WARNING: target of return is a lower address than the corresponding call. This is usually a problem with your trace.
[BTB] WARNING: target of return is a lower address than the corresponding call. This is usually a problem with your trace.
[BTB] WARNING: target of return is a lower address than the corresponding call. This is usually a problem with your trace.
[BTB] WARNING: target of return is a lower address than the corresponding call. This is usually a problem with your trace.
[BTB] WARNING: target of return is a lower address than the corresponding call. This is usually a problem with your trace.
Heartbeat CPU 0 instructions: 10000000 cycles: 2606000 heartbeat IPC: 3.837 cumulative IPC: 3.837 (Simulation time: 00 hr 00 min 37 sec)
Heartbeat CPU 0 instructions: 20000000 cycles: 5054093 heartbeat IPC: 4.085 cumulative IPC: 3.957 (Simulation time: 00 hr 01 min 14 sec)
Warmup finished CPU 0 instructions: 20000000 cycles: 5054093 cumulative IPC: 3.957 (Simulation time: 00 hr 01 min 14 sec)
Warmup complete CPU 0 instructions: 20000000 cycles: 5054093 cumulative IPC: 3.957 (Simulation time: 00 hr 01 min 14 sec)
Heartbeat CPU 0 instructions: 30000001 cycles: 14418939 heartbeat IPC: 1.068 cumulative IPC: 1.068 (Simulation time: 00 hr 02 min 19 sec)
Heartbeat CPU 0 instructions: 40000002 cycles: 23846676 heartbeat IPC: 1.061 cumulative IPC: 1.064 (Simulation time: 00 hr 03 min 30 sec)
Heartbeat CPU 0 instructions: 50000006 cycles: 33149924 heartbeat IPC: 1.075 cumulative IPC: 1.068 (Simulation time: 00 hr 04 min 45 sec)
Heartbeat CPU 0 instructions: 60000009 cycles: 42483885 heartbeat IPC: 1.071 cumulative IPC: 1.069 (Simulation time: 00 hr 05 min 58 sec)
Heartbeat CPU 0 instructions: 70000010 cycles: 51788367 heartbeat IPC: 1.075 cumulative IPC: 1.07 (Simulation time: 00 hr 07 min 13 sec)
Heartbeat CPU 0 instructions: 80000010 cycles: 61138747 heartbeat IPC: 1.069 cumulative IPC: 1.07 (Simulation time: 00 hr 08 min 28 sec)
Heartbeat CPU 0 instructions: 90000010 cycles: 70401132 heartbeat IPC: 1.08 cumulative IPC: 1.071 (Simulation time: 00 hr 09 min 42 sec)
Heartbeat CPU 0 instructions: 100000010 cycles: 79779590 heartbeat IPC: 1.066 cumulative IPC: 1.071 (Simulation time: 00 hr 10 min 55 sec)
*** Reached end of trace: (0, "/home/ho/itp_asplos25_AE/traces/qualcomm_srv/srv769_ap.champsimtrace.xz")
Heartbeat CPU 0 instructions: 110000010 cycles: 89056619 heartbeat IPC: 1.078 cumulative IPC: 1.071 (Simulation time: 00 hr 12 min 03 sec)
Simulation finished CPU 0 instructions: 100000002 cycles: 93389369 cumulative IPC: 1.071 (Simulation time: 00 hr 13 min 08 sec)
Simulation complete CPU 0 instructions: 100000002 cycles: 93389369 cumulative IPC: 1.071 (Simulation time: 00 hr 13 min 08 sec)

ChampSim completed all CPUs

=== Simulation ===
CPU 0 runs /home/ho/itp_asplos25_AE/traces/qualcomm_srv/srv769_ap.champsimtrace.xz

Region of Interest Statistics

CPU 0 cumulative IPC: 1.071 instructions: 100000002 cycles: 93389369
CPU 0 Branch Prediction Accuracy: 90.88% MPKI: 16.06 Average ROB Occupancy at Mispredict: 26.14
Branch type MPKI
BRANCH_DIRECT_JUMP: 0.3811
BRANCH_INDIRECT: 0.413
BRANCH_CONDITIONAL: 13.14
BRANCH_DIRECT_CALL: 0.9156
BRANCH_INDIRECT_CALL: 0.5988
BRANCH_RETURN: 0.618


====Backend Stall Breakdown====
ROB_STALL: 108438
LQ_STALL: 0
SQ_STALL: 556044


====ROB Stall Breakdown====

== Average ==
ADDR_TRANS: 139.95122
REPLAY_LOAD: 97.46667
NON_REPLAY_LOAD: 16.332546

== Total ==
ADDR_TRANS: 5738
REPLAY_LOAD: 5848
NON_REPLAY_LOAD: 96852

== Counts ==
ADDR_TRANS: 41
REPLAY_LOAD: 60
NON_REPLAY_LOAD: 5930

cpu0->cpu0_STLB TOTAL        ACCESS:    1868900 HIT:    1864690 MISS:       4210 MSHR_MERGE:          0
cpu0->cpu0_STLB LOAD         ACCESS:    1868900 HIT:    1864690 MISS:       4210 MSHR_MERGE:          0
cpu0->cpu0_STLB RFO          ACCESS:          0 HIT:          0 MISS:          0 MSHR_MERGE:          0
cpu0->cpu0_STLB PREFETCH     ACCESS:          0 HIT:          0 MISS:          0 MSHR_MERGE:          0
cpu0->cpu0_STLB WRITE        ACCESS:          0 HIT:          0 MISS:          0 MSHR_MERGE:          0
cpu0->cpu0_STLB TRANSLATION  ACCESS:          0 HIT:          0 MISS:          0 MSHR_MERGE:          0
cpu0->cpu0_STLB PREFETCH REQUESTED:          0 ISSUED:          0 USEFUL:          0 USELESS:          0
cpu0->cpu0_STLB AVERAGE MISS LATENCY: 217.6 cycles
cpu0->cpu0_L2C TOTAL        ACCESS:    8364753 HIT:    7016107 MISS:    1348646 MSHR_MERGE:          0
cpu0->cpu0_L2C LOAD         ACCESS:    6792785 HIT:    5666492 MISS:    1126293 MSHR_MERGE:          0
cpu0->cpu0_L2C RFO          ACCESS:     563356 HIT:     378624 MISS:     184732 MSHR_MERGE:          0
cpu0->cpu0_L2C PREFETCH     ACCESS:          0 HIT:          0 MISS:          0 MSHR_MERGE:          0
cpu0->cpu0_L2C WRITE        ACCESS:    1000897 HIT:     970381 MISS:      30516 MSHR_MERGE:          0
cpu0->cpu0_L2C TRANSLATION  ACCESS:       7715 HIT:        610 MISS:       7105 MSHR_MERGE:          0
cpu0->cpu0_L2C PREFETCH REQUESTED:          0 ISSUED:          0 USEFUL:          0 USELESS:          0
cpu0->cpu0_L2C AVERAGE MISS LATENCY: 33.88 cycles
cpu0->cpu0_L1I TOTAL        ACCESS:   14935133 HIT:    8021042 MISS:    6914091 MSHR_MERGE:    1626315
cpu0->cpu0_L1I LOAD         ACCESS:   14935133 HIT:    8021042 MISS:    6914091 MSHR_MERGE:    1626315
cpu0->cpu0_L1I RFO          ACCESS:          0 HIT:          0 MISS:          0 MSHR_MERGE:          0
cpu0->cpu0_L1I PREFETCH     ACCESS:          0 HIT:          0 MISS:          0 MSHR_MERGE:          0
cpu0->cpu0_L1I WRITE        ACCESS:          0 HIT:          0 MISS:          0 MSHR_MERGE:          0
cpu0->cpu0_L1I TRANSLATION  ACCESS:          0 HIT:          0 MISS:          0 MSHR_MERGE:          0
cpu0->cpu0_L1I PREFETCH REQUESTED:          0 ISSUED:          0 USEFUL:          0 USELESS:          0
cpu0->cpu0_L1I AVERAGE MISS LATENCY: 15.81 cycles
cpu0->cpu0_L1D TOTAL        ACCESS:   30396320 HIT:   26808471 MISS:    3587849 MSHR_MERGE:    1511764
cpu0->cpu0_L1D LOAD         ACCESS:   17126700 HIT:   15240730 MISS:    1885970 MSHR_MERGE:     380958
cpu0->cpu0_L1D RFO          ACCESS:          0 HIT:          0 MISS:          0 MSHR_MERGE:          0
cpu0->cpu0_L1D PREFETCH     ACCESS:          0 HIT:          0 MISS:          0 MSHR_MERGE:          0
cpu0->cpu0_L1D WRITE        ACCESS:   13261009 HIT:   11566954 MISS:    1694055 MSHR_MERGE:    1130697
cpu0->cpu0_L1D TRANSLATION  ACCESS:       8611 HIT:        787 MISS:       7824 MSHR_MERGE:        109
cpu0->cpu0_L1D PREFETCH REQUESTED:          0 ISSUED:          0 USEFUL:          0 USELESS:          0
cpu0->cpu0_L1D AVERAGE MISS LATENCY: 22.65 cycles
cpu0->cpu0_ITLB TOTAL        ACCESS:   12386535 HIT:   10484045 MISS:    1902490 MSHR_MERGE:     956287
cpu0->cpu0_ITLB LOAD         ACCESS:   12386535 HIT:   10484045 MISS:    1902490 MSHR_MERGE:     956287
cpu0->cpu0_ITLB RFO          ACCESS:          0 HIT:          0 MISS:          0 MSHR_MERGE:          0
cpu0->cpu0_ITLB PREFETCH     ACCESS:          0 HIT:          0 MISS:          0 MSHR_MERGE:          0
cpu0->cpu0_ITLB WRITE        ACCESS:          0 HIT:          0 MISS:          0 MSHR_MERGE:          0
cpu0->cpu0_ITLB TRANSLATION  ACCESS:          0 HIT:          0 MISS:          0 MSHR_MERGE:          0
cpu0->cpu0_ITLB PREFETCH REQUESTED:          0 ISSUED:          0 USEFUL:          0 USELESS:          0
cpu0->cpu0_ITLB AVERAGE MISS LATENCY: 5.069 cycles
cpu0->cpu0_DTLB TOTAL        ACCESS:   28815983 HIT:   27568507 MISS:    1247476 MSHR_MERGE:     324779
cpu0->cpu0_DTLB LOAD         ACCESS:   28815983 HIT:   27568507 MISS:    1247476 MSHR_MERGE:     324779
cpu0->cpu0_DTLB RFO          ACCESS:          0 HIT:          0 MISS:          0 MSHR_MERGE:          0
cpu0->cpu0_DTLB PREFETCH     ACCESS:          0 HIT:          0 MISS:          0 MSHR_MERGE:          0
cpu0->cpu0_DTLB WRITE        ACCESS:          0 HIT:          0 MISS:          0 MSHR_MERGE:          0
cpu0->cpu0_DTLB TRANSLATION  ACCESS:          0 HIT:          0 MISS:          0 MSHR_MERGE:          0
cpu0->cpu0_DTLB PREFETCH REQUESTED:          0 ISSUED:          0 USEFUL:          0 USELESS:          0
cpu0->cpu0_DTLB AVERAGE MISS LATENCY: 5.929 cycles
cpu0->LLC TOTAL        ACCESS:    1616213 HIT:    1564093 MISS:      52120 MSHR_MERGE:          0
cpu0->LLC LOAD         ACCESS:    1126293 HIT:    1106794 MISS:      19499 MSHR_MERGE:          0
cpu0->LLC RFO          ACCESS:     184731 HIT:     156347 MISS:      28384 MSHR_MERGE:          0
cpu0->LLC PREFETCH     ACCESS:          0 HIT:          0 MISS:          0 MSHR_MERGE:          0
cpu0->LLC WRITE        ACCESS:     298084 HIT:     297829 MISS:        255 MSHR_MERGE:          0
cpu0->LLC TRANSLATION  ACCESS:       7105 HIT:       3123 MISS:       3982 MSHR_MERGE:          0
cpu0->LLC PREFETCH REQUESTED:          0 ISSUED:          0 USEFUL:          0 USELESS:          0
cpu0->LLC AVERAGE MISS LATENCY: 119.8 cycles

DRAM Statistics

Channel 0 RQ ROW_BUFFER_HIT:       3151
  ROW_BUFFER_MISS:      48712
  AVG DBUS CONGESTED CYCLE: 3.485
Channel 0 WQ ROW_BUFFER_HIT:       1015
  ROW_BUFFER_MISS:      20547
  FULL:          0
Channel 0 REFRESHES ISSUED:       7782

==== TLB→Cache/MEM Breakdown (ROI totals across all caches) ====

DTLB
  (case)                                L1I          L1D          L2C          LLC          MEM
  STLB hit → final level                  0       524060       422673       101588         2589
---------------------------------------------------------------
  STLB miss resolved @ L1D                0            5           70          417          280
  STLB miss resolved @ L2C                0           44           93          319           98
  STLB miss resolved @ LLC                0           87          285         1676          622
  STLB miss resolved @ MEM                0            5          333         2223         2169

ITLB
  (case)                                L1I          L1D          L2C          LLC          MEM
  STLB hit → final level             162750        48953      1241817       155175          355
---------------------------------------------------------------
  STLB miss resolved @ L1D                0            1           62          102           31
  STLB miss resolved @ L2C                0           39           61           57           15
  STLB miss resolved @ LLC                0           54          139          407           58
  STLB miss resolved @ MEM                0            0           56          210           71
[2025-09-17 13:20:42] END   suite=qualcomm_srv trace=srv769_ap (rc=0)
