[2025-09-15 16:41:48] START suite=spec trace=403.gcc-16B
CMD: ./bin/champsim -w 20000000 -i 100000000 /home/ho/prefetch_aware_insertion_ptr/traces/spec2k17/403.gcc-16B.champsimtrace.xz
[VMEM] WARNING: physical memory size is smaller than virtual memory size.

*** ChampSim Multicore Out-of-Order Simulator ***
Warmup Instructions: 20000000
Simulation Instructions: 100000000
Number of CPUs: 1
Page size: 4096

Off-chip DRAM Size: 16 GiB Channels: 1 Width: 64-bit Data Rate: 3205 MT/s
Heartbeat CPU 0 instructions: 10000001 cycles: 4156305 heartbeat IPC: 2.406 cumulative IPC: 2.406 (Simulation time: 00 hr 00 min 39 sec)
Warmup finished CPU 0 instructions: 20000000 cycles: 8223430 cumulative IPC: 2.432 (Simulation time: 00 hr 01 min 17 sec)
Warmup complete CPU 0 instructions: 20000000 cycles: 8223430 cumulative IPC: 2.432 (Simulation time: 00 hr 01 min 17 sec)
Heartbeat CPU 0 instructions: 20000004 cycles: 8223431 heartbeat IPC: 2.459 cumulative IPC: 4 (Simulation time: 00 hr 01 min 17 sec)
Heartbeat CPU 0 instructions: 30000007 cycles: 12673064 heartbeat IPC: 2.247 cumulative IPC: 2.247 (Simulation time: 00 hr 01 min 58 sec)
Heartbeat CPU 0 instructions: 40000007 cycles: 17145887 heartbeat IPC: 2.236 cumulative IPC: 2.242 (Simulation time: 00 hr 02 min 42 sec)
Heartbeat CPU 0 instructions: 50000008 cycles: 21744164 heartbeat IPC: 2.175 cumulative IPC: 2.219 (Simulation time: 00 hr 03 min 24 sec)
Heartbeat CPU 0 instructions: 60000008 cycles: 26172256 heartbeat IPC: 2.258 cumulative IPC: 2.229 (Simulation time: 00 hr 04 min 06 sec)
Heartbeat CPU 0 instructions: 70000008 cycles: 30663854 heartbeat IPC: 2.226 cumulative IPC: 2.228 (Simulation time: 00 hr 04 min 51 sec)
Heartbeat CPU 0 instructions: 80000008 cycles: 35167426 heartbeat IPC: 2.22 cumulative IPC: 2.227 (Simulation time: 00 hr 05 min 33 sec)
Heartbeat CPU 0 instructions: 90000011 cycles: 39644891 heartbeat IPC: 2.233 cumulative IPC: 2.228 (Simulation time: 00 hr 06 min 18 sec)
Heartbeat CPU 0 instructions: 100000013 cycles: 44194270 heartbeat IPC: 2.198 cumulative IPC: 2.224 (Simulation time: 00 hr 07 min 00 sec)
Heartbeat CPU 0 instructions: 110000015 cycles: 48647525 heartbeat IPC: 2.246 cumulative IPC: 2.226 (Simulation time: 00 hr 07 min 43 sec)
Simulation finished CPU 0 instructions: 100000000 cycles: 44932763 cumulative IPC: 2.226 (Simulation time: 00 hr 08 min 26 sec)
Simulation complete CPU 0 instructions: 100000000 cycles: 44932763 cumulative IPC: 2.226 (Simulation time: 00 hr 08 min 26 sec)

ChampSim completed all CPUs

=== Simulation ===
CPU 0 runs /home/ho/prefetch_aware_insertion_ptr/traces/spec2k17/403.gcc-16B.champsimtrace.xz

Region of Interest Statistics

CPU 0 cumulative IPC: 2.226 instructions: 100000000 cycles: 44932763
CPU 0 Branch Prediction Accuracy: 99.63% MPKI: 0.7164 Average ROB Occupancy at Mispredict: 48.49
Branch type MPKI
BRANCH_DIRECT_JUMP: 0.0096
BRANCH_INDIRECT: 0.02481
BRANCH_CONDITIONAL: 0.6819
BRANCH_DIRECT_CALL: 1e-05
BRANCH_INDIRECT_CALL: 8e-05
BRANCH_RETURN: 1e-05


====Backend Stall Breakdown====
ROB_STALL: 36032
LQ_STALL: 0
SQ_STALL: 2042966


====ROB Stall Breakdown====

== Average ==
ADDR_TRANS: 446.66666
REPLAY_LOAD: 92
NON_REPLAY_LOAD: 9.31673

== Total ==
ADDR_TRANS: 1340
REPLAY_LOAD: 276
NON_REPLAY_LOAD: 34416

== Counts ==
ADDR_TRANS: 3
REPLAY_LOAD: 3
NON_REPLAY_LOAD: 3694

cpu0->cpu0_STLB TOTAL        ACCESS:     110048 HIT:     109214 MISS:        834 MSHR_MERGE:          0
cpu0->cpu0_STLB LOAD         ACCESS:     110048 HIT:     109214 MISS:        834 MSHR_MERGE:          0
cpu0->cpu0_STLB RFO          ACCESS:          0 HIT:          0 MISS:          0 MSHR_MERGE:          0
cpu0->cpu0_STLB PREFETCH     ACCESS:          0 HIT:          0 MISS:          0 MSHR_MERGE:          0
cpu0->cpu0_STLB WRITE        ACCESS:          0 HIT:          0 MISS:          0 MSHR_MERGE:          0
cpu0->cpu0_STLB TRANSLATION  ACCESS:          0 HIT:          0 MISS:          0 MSHR_MERGE:          0
cpu0->cpu0_STLB PREFETCH REQUESTED:          0 ISSUED:          0 USEFUL:          0 USELESS:          0
cpu0->cpu0_STLB AVERAGE MISS LATENCY: 617.9 cycles
cpu0->cpu0_L2C TOTAL        ACCESS:    9976878 HIT:    6806407 MISS:    3170471 MSHR_MERGE:          0
cpu0->cpu0_L2C LOAD         ACCESS:      66037 HIT:      11388 MISS:      54649 MSHR_MERGE:          0
cpu0->cpu0_L2C RFO          ACCESS:    4946342 HIT:    1831933 MISS:    3114409 MSHR_MERGE:          0
cpu0->cpu0_L2C PREFETCH     ACCESS:          0 HIT:          0 MISS:          0 MSHR_MERGE:          0
cpu0->cpu0_L2C WRITE        ACCESS:    4963053 HIT:    4963053 MISS:          0 MSHR_MERGE:          0
cpu0->cpu0_L2C TRANSLATION  ACCESS:       1446 HIT:         33 MISS:       1413 MSHR_MERGE:          0
cpu0->cpu0_L2C PREFETCH REQUESTED:          0 ISSUED:          0 USEFUL:          0 USELESS:          0
cpu0->cpu0_L2C AVERAGE MISS LATENCY: 30.69 cycles
cpu0->cpu0_L1I TOTAL        ACCESS:   17899678 HIT:   17892452 MISS:       7226 MSHR_MERGE:       2176
cpu0->cpu0_L1I LOAD         ACCESS:   17899678 HIT:   17892452 MISS:       7226 MSHR_MERGE:       2176
cpu0->cpu0_L1I RFO          ACCESS:          0 HIT:          0 MISS:          0 MSHR_MERGE:          0
cpu0->cpu0_L1I PREFETCH     ACCESS:          0 HIT:          0 MISS:          0 MSHR_MERGE:          0
cpu0->cpu0_L1I WRITE        ACCESS:          0 HIT:          0 MISS:          0 MSHR_MERGE:          0
cpu0->cpu0_L1I TRANSLATION  ACCESS:          0 HIT:          0 MISS:          0 MSHR_MERGE:          0
cpu0->cpu0_L1I PREFETCH REQUESTED:          0 ISSUED:          0 USEFUL:          0 USELESS:          0
cpu0->cpu0_L1I AVERAGE MISS LATENCY: 36.42 cycles
cpu0->cpu0_L1D TOTAL        ACCESS:   40872424 HIT:    1289511 MISS:   39582913 MSHR_MERGE:   34574137
cpu0->cpu0_L1D LOAD         ACCESS:     703117 HIT:     612990 MISS:      90127 MSHR_MERGE:      29140
cpu0->cpu0_L1D RFO          ACCESS:          0 HIT:          0 MISS:          0 MSHR_MERGE:          0
cpu0->cpu0_L1D PREFETCH     ACCESS:          0 HIT:          0 MISS:          0 MSHR_MERGE:          0
cpu0->cpu0_L1D WRITE        ACCESS:   40167634 HIT:     676294 MISS:   39491340 MSHR_MERGE:   34544997
cpu0->cpu0_L1D TRANSLATION  ACCESS:       1673 HIT:        227 MISS:       1446 MSHR_MERGE:          0
cpu0->cpu0_L1D PREFETCH REQUESTED:          0 ISSUED:          0 USEFUL:          0 USELESS:          0
cpu0->cpu0_L1D AVERAGE MISS LATENCY: 32.06 cycles
cpu0->cpu0_ITLB TOTAL        ACCESS:   17821139 HIT:   17819442 MISS:       1697 MSHR_MERGE:        865
cpu0->cpu0_ITLB LOAD         ACCESS:   17821139 HIT:   17819442 MISS:       1697 MSHR_MERGE:        865
cpu0->cpu0_ITLB RFO          ACCESS:          0 HIT:          0 MISS:          0 MSHR_MERGE:          0
cpu0->cpu0_ITLB PREFETCH     ACCESS:          0 HIT:          0 MISS:          0 MSHR_MERGE:          0
cpu0->cpu0_ITLB WRITE        ACCESS:          0 HIT:          0 MISS:          0 MSHR_MERGE:          0
cpu0->cpu0_ITLB TRANSLATION  ACCESS:          0 HIT:          0 MISS:          0 MSHR_MERGE:          0
cpu0->cpu0_ITLB PREFETCH REQUESTED:          0 ISSUED:          0 USEFUL:          0 USELESS:          0
cpu0->cpu0_ITLB AVERAGE MISS LATENCY: 5.001 cycles
cpu0->cpu0_DTLB TOTAL        ACCESS:   40794569 HIT:   40286723 MISS:     507846 MSHR_MERGE:     398630
cpu0->cpu0_DTLB LOAD         ACCESS:   40794569 HIT:   40286723 MISS:     507846 MSHR_MERGE:     398630
cpu0->cpu0_DTLB RFO          ACCESS:          0 HIT:          0 MISS:          0 MSHR_MERGE:          0
cpu0->cpu0_DTLB PREFETCH     ACCESS:          0 HIT:          0 MISS:          0 MSHR_MERGE:          0
cpu0->cpu0_DTLB WRITE        ACCESS:          0 HIT:          0 MISS:          0 MSHR_MERGE:          0
cpu0->cpu0_DTLB TRANSLATION  ACCESS:          0 HIT:          0 MISS:          0 MSHR_MERGE:          0
cpu0->cpu0_DTLB PREFETCH REQUESTED:          0 ISSUED:          0 USEFUL:          0 USELESS:          0
cpu0->cpu0_DTLB AVERAGE MISS LATENCY: 9.726 cycles
cpu0->LLC TOTAL        ACCESS:    6296783 HIT:    6283130 MISS:      13653 MSHR_MERGE:          0
cpu0->LLC LOAD         ACCESS:      54649 HIT:      43002 MISS:      11647 MSHR_MERGE:          0
cpu0->LLC RFO          ACCESS:    3114409 HIT:    3113664 MISS:        745 MSHR_MERGE:          0
cpu0->LLC PREFETCH     ACCESS:          0 HIT:          0 MISS:          0 MSHR_MERGE:          0
cpu0->LLC WRITE        ACCESS:    3126312 HIT:    3126312 MISS:          0 MSHR_MERGE:          0
cpu0->LLC TRANSLATION  ACCESS:       1413 HIT:        152 MISS:       1261 MSHR_MERGE:          0
cpu0->LLC PREFETCH REQUESTED:          0 ISSUED:          0 USEFUL:          0 USELESS:          0
cpu0->LLC AVERAGE MISS LATENCY: 85.59 cycles

DRAM Statistics

Channel 0 RQ ROW_BUFFER_HIT:        120
  ROW_BUFFER_MISS:      13533
  AVG DBUS CONGESTED CYCLE: 6.39
Channel 0 WQ ROW_BUFFER_HIT:         28
  ROW_BUFFER_MISS:        119
  FULL:          0
Channel 0 REFRESHES ISSUED:       3744
[2025-09-15 16:50:14] END   suite=spec trace=403.gcc-16B (rc=0)
