[2025-09-15 17:39:58] START suite=spec trace=429.mcf-192B
CMD: ./bin/champsim -w 20000000 -i 100000000 /home/ho/prefetch_aware_insertion_ptr/traces/spec2k17/429.mcf-192B.champsimtrace.xz
[VMEM] WARNING: physical memory size is smaller than virtual memory size.

*** ChampSim Multicore Out-of-Order Simulator ***
Warmup Instructions: 20000000
Simulation Instructions: 100000000
Number of CPUs: 1
Page size: 4096

Off-chip DRAM Size: 16 GiB Channels: 1 Width: 64-bit Data Rate: 3205 MT/s
Heartbeat CPU 0 instructions: 10000001 cycles: 3563336 heartbeat IPC: 2.806 cumulative IPC: 2.806 (Simulation time: 00 hr 00 min 51 sec)
Warmup finished CPU 0 instructions: 20000000 cycles: 6978345 cumulative IPC: 2.866 (Simulation time: 00 hr 01 min 40 sec)
Warmup complete CPU 0 instructions: 20000000 cycles: 6978345 cumulative IPC: 2.866 (Simulation time: 00 hr 01 min 40 sec)
Heartbeat CPU 0 instructions: 20000005 cycles: 6978346 heartbeat IPC: 2.928 cumulative IPC: 5 (Simulation time: 00 hr 01 min 40 sec)
Heartbeat CPU 0 instructions: 30000008 cycles: 88036831 heartbeat IPC: 0.1234 cumulative IPC: 0.1234 (Simulation time: 00 hr 08 min 47 sec)
Heartbeat CPU 0 instructions: 40000008 cycles: 170515501 heartbeat IPC: 0.1212 cumulative IPC: 0.1223 (Simulation time: 00 hr 15 min 18 sec)
Heartbeat CPU 0 instructions: 50000011 cycles: 252384100 heartbeat IPC: 0.1221 cumulative IPC: 0.1222 (Simulation time: 00 hr 22 min 05 sec)
Heartbeat CPU 0 instructions: 60000011 cycles: 332341020 heartbeat IPC: 0.1251 cumulative IPC: 0.1229 (Simulation time: 00 hr 29 min 10 sec)
Heartbeat CPU 0 instructions: 70000012 cycles: 414691316 heartbeat IPC: 0.1214 cumulative IPC: 0.1226 (Simulation time: 00 hr 35 min 56 sec)
Heartbeat CPU 0 instructions: 80000013 cycles: 504998047 heartbeat IPC: 0.1107 cumulative IPC: 0.1205 (Simulation time: 00 hr 43 min 54 sec)
Heartbeat CPU 0 instructions: 90000013 cycles: 585919491 heartbeat IPC: 0.1236 cumulative IPC: 0.1209 (Simulation time: 00 hr 50 min 50 sec)
Heartbeat CPU 0 instructions: 100000014 cycles: 666121227 heartbeat IPC: 0.1247 cumulative IPC: 0.1214 (Simulation time: 00 hr 57 min 24 sec)
Heartbeat CPU 0 instructions: 110000017 cycles: 748222786 heartbeat IPC: 0.1218 cumulative IPC: 0.1214 (Simulation time: 01 hr 04 min 06 sec)
Simulation finished CPU 0 instructions: 100000001 cycles: 823472151 cumulative IPC: 0.1214 (Simulation time: 01 hr 11 min 00 sec)
Simulation complete CPU 0 instructions: 100000001 cycles: 823472151 cumulative IPC: 0.1214 (Simulation time: 01 hr 11 min 00 sec)

ChampSim completed all CPUs

=== Simulation ===
CPU 0 runs /home/ho/prefetch_aware_insertion_ptr/traces/spec2k17/429.mcf-192B.champsimtrace.xz

Region of Interest Statistics

CPU 0 cumulative IPC: 0.1214 instructions: 100000001 cycles: 823472151
CPU 0 Branch Prediction Accuracy: 90.81% MPKI: 22.09 Average ROB Occupancy at Mispredict: 23.43
Branch type MPKI
BRANCH_DIRECT_JUMP: 0.02127
BRANCH_INDIRECT: 0
BRANCH_CONDITIONAL: 22.07
BRANCH_DIRECT_CALL: 1e-05
BRANCH_INDIRECT_CALL: 0
BRANCH_RETURN: 1e-05


====Backend Stall Breakdown====
ROB_STALL: 1016821
LQ_STALL: 25537
SQ_STALL: 183


====ROB Stall Breakdown====

== Average ==
ADDR_TRANS: 277.29315
REPLAY_LOAD: 87.124405
NON_REPLAY_LOAD: 45.013126

== Total ==
ADDR_TRANS: 239304
REPLAY_LOAD: 91742
NON_REPLAY_LOAD: 685775

== Counts ==
ADDR_TRANS: 863
REPLAY_LOAD: 1053
NON_REPLAY_LOAD: 15235

cpu0->cpu0_STLB TOTAL        ACCESS:   14580037 HIT:   14295426 MISS:     284611 MSHR_MERGE:          0
cpu0->cpu0_STLB LOAD         ACCESS:   14580037 HIT:   14295426 MISS:     284611 MSHR_MERGE:          0
cpu0->cpu0_STLB RFO          ACCESS:          0 HIT:          0 MISS:          0 MSHR_MERGE:          0
cpu0->cpu0_STLB PREFETCH     ACCESS:          0 HIT:          0 MISS:          0 MSHR_MERGE:          0
cpu0->cpu0_STLB WRITE        ACCESS:          0 HIT:          0 MISS:          0 MSHR_MERGE:          0
cpu0->cpu0_STLB TRANSLATION  ACCESS:          0 HIT:          0 MISS:          0 MSHR_MERGE:          0
cpu0->cpu0_STLB PREFETCH REQUESTED:          0 ISSUED:          0 USEFUL:          0 USELESS:          0
cpu0->cpu0_STLB AVERAGE MISS LATENCY: 417.6 cycles
cpu0->cpu0_L2C TOTAL        ACCESS:   15020766 HIT:    4022158 MISS:   10998608 MSHR_MERGE:          0
cpu0->cpu0_L2C LOAD         ACCESS:   14284897 HIT:    3919265 MISS:   10365632 MSHR_MERGE:          0
cpu0->cpu0_L2C RFO          ACCESS:       7792 HIT:       1741 MISS:       6051 MSHR_MERGE:          0
cpu0->cpu0_L2C PREFETCH     ACCESS:          0 HIT:          0 MISS:          0 MSHR_MERGE:          0
cpu0->cpu0_L2C WRITE        ACCESS:      75223 HIT:      75223 MISS:          0 MSHR_MERGE:          0
cpu0->cpu0_L2C TRANSLATION  ACCESS:     652854 HIT:      25929 MISS:     626925 MSHR_MERGE:          0
cpu0->cpu0_L2C PREFETCH REQUESTED:          0 ISSUED:          0 USEFUL:          0 USELESS:          0
cpu0->cpu0_L2C AVERAGE MISS LATENCY: 104.3 cycles
cpu0->cpu0_L1I TOTAL        ACCESS:    1321218 HIT:    1321215 MISS:          3 MSHR_MERGE:          0
cpu0->cpu0_L1I LOAD         ACCESS:    1321218 HIT:    1321215 MISS:          3 MSHR_MERGE:          0
cpu0->cpu0_L1I RFO          ACCESS:          0 HIT:          0 MISS:          0 MSHR_MERGE:          0
cpu0->cpu0_L1I PREFETCH     ACCESS:          0 HIT:          0 MISS:          0 MSHR_MERGE:          0
cpu0->cpu0_L1I WRITE        ACCESS:          0 HIT:          0 MISS:          0 MSHR_MERGE:          0
cpu0->cpu0_L1I TRANSLATION  ACCESS:          0 HIT:          0 MISS:          0 MSHR_MERGE:          0
cpu0->cpu0_L1I PREFETCH REQUESTED:          0 ISSUED:          0 USEFUL:          0 USELESS:          0
cpu0->cpu0_L1I AVERAGE MISS LATENCY: 165.3 cycles
cpu0->cpu0_L1D TOTAL        ACCESS:   25496705 HIT:    6636006 MISS:   18860699 MSHR_MERGE:    3915160
cpu0->cpu0_L1D LOAD         ACCESS:   24701222 HIT:    6505572 MISS:   18195650 MSHR_MERGE:    3910757
cpu0->cpu0_L1D RFO          ACCESS:          0 HIT:          0 MISS:          0 MSHR_MERGE:          0
cpu0->cpu0_L1D PREFETCH     ACCESS:          0 HIT:          0 MISS:          0 MSHR_MERGE:          0
cpu0->cpu0_L1D WRITE        ACCESS:     126989 HIT:     118220 MISS:       8769 MSHR_MERGE:        977
cpu0->cpu0_L1D TRANSLATION  ACCESS:     668494 HIT:      12214 MISS:     656280 MSHR_MERGE:       3426
cpu0->cpu0_L1D PREFETCH REQUESTED:          0 ISSUED:          0 USEFUL:          0 USELESS:          0
cpu0->cpu0_L1D AVERAGE MISS LATENCY: 89.34 cycles
cpu0->cpu0_ITLB TOTAL        ACCESS:     970216 HIT:     970215 MISS:          1 MSHR_MERGE:          0
cpu0->cpu0_ITLB LOAD         ACCESS:     970216 HIT:     970215 MISS:          1 MSHR_MERGE:          0
cpu0->cpu0_ITLB RFO          ACCESS:          0 HIT:          0 MISS:          0 MSHR_MERGE:          0
cpu0->cpu0_ITLB PREFETCH     ACCESS:          0 HIT:          0 MISS:          0 MSHR_MERGE:          0
cpu0->cpu0_ITLB WRITE        ACCESS:          0 HIT:          0 MISS:          0 MSHR_MERGE:          0
cpu0->cpu0_ITLB TRANSLATION  ACCESS:          0 HIT:          0 MISS:          0 MSHR_MERGE:          0
cpu0->cpu0_ITLB PREFETCH REQUESTED:          0 ISSUED:          0 USEFUL:          0 USELESS:          0
cpu0->cpu0_ITLB AVERAGE MISS LATENCY: 666 cycles
cpu0->cpu0_DTLB TOTAL        ACCESS:   24820063 HIT:    6362423 MISS:   18457640 MSHR_MERGE:    3877605
cpu0->cpu0_DTLB LOAD         ACCESS:   24820063 HIT:    6362423 MISS:   18457640 MSHR_MERGE:    3877605
cpu0->cpu0_DTLB RFO          ACCESS:          0 HIT:          0 MISS:          0 MSHR_MERGE:          0
cpu0->cpu0_DTLB PREFETCH     ACCESS:          0 HIT:          0 MISS:          0 MSHR_MERGE:          0
cpu0->cpu0_DTLB WRITE        ACCESS:          0 HIT:          0 MISS:          0 MSHR_MERGE:          0
cpu0->cpu0_DTLB TRANSLATION  ACCESS:          0 HIT:          0 MISS:          0 MSHR_MERGE:          0
cpu0->cpu0_DTLB PREFETCH REQUESTED:          0 ISSUED:          0 USEFUL:          0 USELESS:          0
cpu0->cpu0_DTLB AVERAGE MISS LATENCY: 13.17 cycles
cpu0->LLC TOTAL        ACCESS:   11068866 HIT:    3159713 MISS:    7909153 MSHR_MERGE:          0
cpu0->LLC LOAD         ACCESS:   10365632 HIT:    2928970 MISS:    7436662 MSHR_MERGE:          0
cpu0->LLC RFO          ACCESS:       6051 HIT:       1524 MISS:       4527 MSHR_MERGE:          0
cpu0->LLC PREFETCH     ACCESS:          0 HIT:          0 MISS:          0 MSHR_MERGE:          0
cpu0->LLC WRITE        ACCESS:      70259 HIT:      70109 MISS:        150 MSHR_MERGE:          0
cpu0->LLC TRANSLATION  ACCESS:     626924 HIT:     159110 MISS:     467814 MSHR_MERGE:          0
cpu0->LLC PREFETCH REQUESTED:          0 ISSUED:          0 USEFUL:          0 USELESS:          0
cpu0->LLC AVERAGE MISS LATENCY: 103 cycles

DRAM Statistics

Channel 0 RQ ROW_BUFFER_HIT:       1473
  ROW_BUFFER_MISS:    7907530
  AVG DBUS CONGESTED CYCLE: 3.199
Channel 0 WQ ROW_BUFFER_HIT:      17382
  ROW_BUFFER_MISS:      48187
  FULL:          0
Channel 0 REFRESHES ISSUED:      68623
[2025-09-15 18:50:59] END   suite=spec trace=429.mcf-192B (rc=0)
