[2025-09-15 17:29:49] START suite=spec trace=429.mcf-217B
CMD: ./bin/champsim -w 20000000 -i 100000000 /home/ho/prefetch_aware_insertion_ptr/traces/spec2k17/429.mcf-217B.champsimtrace.xz
[VMEM] WARNING: physical memory size is smaller than virtual memory size.

*** ChampSim Multicore Out-of-Order Simulator ***
Warmup Instructions: 20000000
Simulation Instructions: 100000000
Number of CPUs: 1
Page size: 4096

Off-chip DRAM Size: 16 GiB Channels: 1 Width: 64-bit Data Rate: 3205 MT/s
Heartbeat CPU 0 instructions: 10000003 cycles: 3756266 heartbeat IPC: 2.662 cumulative IPC: 2.662 (Simulation time: 00 hr 00 min 47 sec)
Heartbeat CPU 0 instructions: 20000003 cycles: 7204658 heartbeat IPC: 2.9 cumulative IPC: 2.776 (Simulation time: 00 hr 01 min 34 sec)
Warmup finished CPU 0 instructions: 20000003 cycles: 7204658 cumulative IPC: 2.776 (Simulation time: 00 hr 01 min 34 sec)
Warmup complete CPU 0 instructions: 20000003 cycles: 7204658 cumulative IPC: 2.776 (Simulation time: 00 hr 01 min 34 sec)
Heartbeat CPU 0 instructions: 30000007 cycles: 58113354 heartbeat IPC: 0.1964 cumulative IPC: 0.1964 (Simulation time: 00 hr 08 min 12 sec)
Heartbeat CPU 0 instructions: 40000008 cycles: 75693368 heartbeat IPC: 0.5688 cumulative IPC: 0.292 (Simulation time: 00 hr 10 min 35 sec)
Simulation CPU 0 warning: IPC 0.04971 < 0.05
Heartbeat CPU 0 instructions: 50000010 cycles: 110802332 heartbeat IPC: 0.2848 cumulative IPC: 0.2896 (Simulation time: 00 hr 15 min 29 sec)
Simulation CPU 0 warning: IPC 0.049545 < 0.05
Heartbeat CPU 0 instructions: 60000013 cycles: 177274615 heartbeat IPC: 0.1504 cumulative IPC: 0.2352 (Simulation time: 00 hr 24 min 33 sec)
Heartbeat CPU 0 instructions: 70000013 cycles: 210073847 heartbeat IPC: 0.3049 cumulative IPC: 0.2465 (Simulation time: 00 hr 28 min 50 sec)
Simulation CPU 0 warning: IPC 0.049681 < 0.05
Heartbeat CPU 0 instructions: 80000013 cycles: 268455271 heartbeat IPC: 0.1713 cumulative IPC: 0.2297 (Simulation time: 00 hr 36 min 37 sec)
Heartbeat CPU 0 instructions: 90000013 cycles: 309045679 heartbeat IPC: 0.2464 cumulative IPC: 0.2319 (Simulation time: 00 hr 41 min 59 sec)
Heartbeat CPU 0 instructions: 100000014 cycles: 348968526 heartbeat IPC: 0.2505 cumulative IPC: 0.2341 (Simulation time: 00 hr 47 min 09 sec)
Heartbeat CPU 0 instructions: 110000016 cycles: 378259759 heartbeat IPC: 0.3414 cumulative IPC: 0.2426 (Simulation time: 00 hr 51 min 13 sec)
Simulation finished CPU 0 instructions: 100000001 cycles: 383953156 cumulative IPC: 0.2604 (Simulation time: 00 hr 53 min 09 sec)
Simulation complete CPU 0 instructions: 100000001 cycles: 383953156 cumulative IPC: 0.2604 (Simulation time: 00 hr 53 min 09 sec)

ChampSim completed all CPUs

=== Simulation ===
CPU 0 runs /home/ho/prefetch_aware_insertion_ptr/traces/spec2k17/429.mcf-217B.champsimtrace.xz

Region of Interest Statistics

CPU 0 cumulative IPC: 0.2604 instructions: 100000001 cycles: 383953156
CPU 0 Branch Prediction Accuracy: 98.05% MPKI: 2.185 Average ROB Occupancy at Mispredict: 100.4
Branch type MPKI
BRANCH_DIRECT_JUMP: 0
BRANCH_INDIRECT: 0
BRANCH_CONDITIONAL: 2.185
BRANCH_DIRECT_CALL: 0
BRANCH_INDIRECT_CALL: 0
BRANCH_RETURN: 0


====Backend Stall Breakdown====
ROB_STALL: 7328
LQ_STALL: 209925184
SQ_STALL: 36178298


====ROB Stall Breakdown====

== Average ==
ADDR_TRANS: 337.2857
REPLAY_LOAD: 106.57143
NON_REPLAY_LOAD: 21.423077

== Total ==
ADDR_TRANS: 4722
REPLAY_LOAD: 1492
NON_REPLAY_LOAD: 1114

== Counts ==
ADDR_TRANS: 14
REPLAY_LOAD: 14
NON_REPLAY_LOAD: 52

cpu0->cpu0_STLB TOTAL        ACCESS:     256006 HIT:     169964 MISS:      86042 MSHR_MERGE:          0
cpu0->cpu0_STLB LOAD         ACCESS:     256006 HIT:     169964 MISS:      86042 MSHR_MERGE:          0
cpu0->cpu0_STLB RFO          ACCESS:          0 HIT:          0 MISS:          0 MSHR_MERGE:          0
cpu0->cpu0_STLB PREFETCH     ACCESS:          0 HIT:          0 MISS:          0 MSHR_MERGE:          0
cpu0->cpu0_STLB WRITE        ACCESS:          0 HIT:          0 MISS:          0 MSHR_MERGE:          0
cpu0->cpu0_STLB TRANSLATION  ACCESS:          0 HIT:          0 MISS:          0 MSHR_MERGE:          0
cpu0->cpu0_STLB PREFETCH REQUESTED:          0 ISSUED:          0 USEFUL:          0 USELESS:          0
cpu0->cpu0_STLB AVERAGE MISS LATENCY: 215.9 cycles
cpu0->cpu0_L2C TOTAL        ACCESS:    5173501 HIT:     235372 MISS:    4938129 MSHR_MERGE:          0
cpu0->cpu0_L2C LOAD         ACCESS:    4871593 HIT:      33792 MISS:    4837801 MSHR_MERGE:          0
cpu0->cpu0_L2C RFO          ACCESS:       2367 HIT:       2078 MISS:        289 MSHR_MERGE:          0
cpu0->cpu0_L2C PREFETCH     ACCESS:          0 HIT:          0 MISS:          0 MSHR_MERGE:          0
cpu0->cpu0_L2C WRITE        ACCESS:     199243 HIT:     198200 MISS:       1043 MSHR_MERGE:          0
cpu0->cpu0_L2C TRANSLATION  ACCESS:     100298 HIT:       1302 MISS:      98996 MSHR_MERGE:          0
cpu0->cpu0_L2C PREFETCH REQUESTED:          0 ISSUED:          0 USEFUL:          0 USELESS:          0
cpu0->cpu0_L2C AVERAGE MISS LATENCY: 132.1 cycles
cpu0->cpu0_L1I TOTAL        ACCESS:   18007244 HIT:   18007244 MISS:          0 MSHR_MERGE:          0
cpu0->cpu0_L1I LOAD         ACCESS:   18007244 HIT:   18007244 MISS:          0 MSHR_MERGE:          0
cpu0->cpu0_L1I RFO          ACCESS:          0 HIT:          0 MISS:          0 MSHR_MERGE:          0
cpu0->cpu0_L1I PREFETCH     ACCESS:          0 HIT:          0 MISS:          0 MSHR_MERGE:          0
cpu0->cpu0_L1I WRITE        ACCESS:          0 HIT:          0 MISS:          0 MSHR_MERGE:          0
cpu0->cpu0_L1I TRANSLATION  ACCESS:          0 HIT:          0 MISS:          0 MSHR_MERGE:          0
cpu0->cpu0_L1I PREFETCH REQUESTED:          0 ISSUED:          0 USEFUL:          0 USELESS:          0
cpu0->cpu0_L1I AVERAGE MISS LATENCY: - cycles
cpu0->cpu0_L1D TOTAL        ACCESS:   33740952 HIT:   28539289 MISS:    5201663 MSHR_MERGE:     227403
cpu0->cpu0_L1D LOAD         ACCESS:   18920403 HIT:   13829826 MISS:    5090577 MSHR_MERGE:     218982
cpu0->cpu0_L1D RFO          ACCESS:          0 HIT:          0 MISS:          0 MSHR_MERGE:          0
cpu0->cpu0_L1D PREFETCH     ACCESS:          0 HIT:          0 MISS:          0 MSHR_MERGE:          0
cpu0->cpu0_L1D WRITE        ACCESS:   14648429 HIT:   14637674 MISS:      10755 MSHR_MERGE:       8388
cpu0->cpu0_L1D TRANSLATION  ACCESS:     172120 HIT:      71789 MISS:     100331 MSHR_MERGE:         33
cpu0->cpu0_L1D PREFETCH REQUESTED:          0 ISSUED:          0 USEFUL:          0 USELESS:          0
cpu0->cpu0_L1D AVERAGE MISS LATENCY: 144 cycles
cpu0->cpu0_ITLB TOTAL        ACCESS:   14101040 HIT:   14101040 MISS:          0 MSHR_MERGE:          0
cpu0->cpu0_ITLB LOAD         ACCESS:   14101040 HIT:   14101040 MISS:          0 MSHR_MERGE:          0
cpu0->cpu0_ITLB RFO          ACCESS:          0 HIT:          0 MISS:          0 MSHR_MERGE:          0
cpu0->cpu0_ITLB PREFETCH     ACCESS:          0 HIT:          0 MISS:          0 MSHR_MERGE:          0
cpu0->cpu0_ITLB WRITE        ACCESS:          0 HIT:          0 MISS:          0 MSHR_MERGE:          0
cpu0->cpu0_ITLB TRANSLATION  ACCESS:          0 HIT:          0 MISS:          0 MSHR_MERGE:          0
cpu0->cpu0_ITLB PREFETCH REQUESTED:          0 ISSUED:          0 USEFUL:          0 USELESS:          0
cpu0->cpu0_ITLB AVERAGE MISS LATENCY: - cycles
cpu0->cpu0_DTLB TOTAL        ACCESS:   31141394 HIT:   30668483 MISS:     472911 MSHR_MERGE:     216905
cpu0->cpu0_DTLB LOAD         ACCESS:   31141394 HIT:   30668483 MISS:     472911 MSHR_MERGE:     216905
cpu0->cpu0_DTLB RFO          ACCESS:          0 HIT:          0 MISS:          0 MSHR_MERGE:          0
cpu0->cpu0_DTLB PREFETCH     ACCESS:          0 HIT:          0 MISS:          0 MSHR_MERGE:          0
cpu0->cpu0_DTLB WRITE        ACCESS:          0 HIT:          0 MISS:          0 MSHR_MERGE:          0
cpu0->cpu0_DTLB TRANSLATION  ACCESS:          0 HIT:          0 MISS:          0 MSHR_MERGE:          0
cpu0->cpu0_DTLB PREFETCH REQUESTED:          0 ISSUED:          0 USEFUL:          0 USELESS:          0
cpu0->cpu0_DTLB AVERAGE MISS LATENCY: 77.91 cycles
cpu0->LLC TOTAL        ACCESS:    5107229 HIT:     173843 MISS:    4933386 MSHR_MERGE:          0
cpu0->LLC LOAD         ACCESS:    4837801 HIT:       4388 MISS:    4833413 MSHR_MERGE:          0
cpu0->LLC RFO          ACCESS:        289 HIT:        135 MISS:        154 MSHR_MERGE:          0
cpu0->LLC PREFETCH     ACCESS:          0 HIT:          0 MISS:          0 MSHR_MERGE:          0
cpu0->LLC WRITE        ACCESS:     170143 HIT:     169175 MISS:        968 MSHR_MERGE:          0
cpu0->LLC TRANSLATION  ACCESS:      98996 HIT:        145 MISS:      98851 MSHR_MERGE:          0
cpu0->LLC PREFETCH REQUESTED:          0 ISSUED:          0 USEFUL:          0 USELESS:          0
cpu0->LLC AVERAGE MISS LATENCY: 101.7 cycles

DRAM Statistics

Channel 0 RQ ROW_BUFFER_HIT:     164081
  ROW_BUFFER_MISS:    4767907
  AVG DBUS CONGESTED CYCLE: 6.274
Channel 0 WQ ROW_BUFFER_HIT:      40705
  ROW_BUFFER_MISS:     119865
  FULL:          0
Channel 0 REFRESHES ISSUED:      31996
[2025-09-15 18:22:59] END   suite=spec trace=429.mcf-217B (rc=0)
