[2025-09-15 18:43:25] START suite=spec trace=434.zeusmp-10B
CMD: ./bin/champsim -w 20000000 -i 100000000 /home/ho/prefetch_aware_insertion_ptr/traces/spec2k17/434.zeusmp-10B.champsimtrace.xz
[VMEM] WARNING: physical memory size is smaller than virtual memory size.

*** ChampSim Multicore Out-of-Order Simulator ***
Warmup Instructions: 20000000
Simulation Instructions: 100000000
Number of CPUs: 1
Page size: 4096

Off-chip DRAM Size: 16 GiB Channels: 1 Width: 64-bit Data Rate: 3205 MT/s
Heartbeat CPU 0 instructions: 10000004 cycles: 2260265 heartbeat IPC: 4.424 cumulative IPC: 4.424 (Simulation time: 00 hr 00 min 32 sec)
Warmup finished CPU 0 instructions: 20000002 cycles: 4434452 cumulative IPC: 4.51 (Simulation time: 00 hr 01 min 05 sec)
Warmup complete CPU 0 instructions: 20000002 cycles: 4434452 cumulative IPC: 4.51 (Simulation time: 00 hr 01 min 05 sec)
Heartbeat CPU 0 instructions: 20000007 cycles: 4434453 heartbeat IPC: 4.599 cumulative IPC: 5 (Simulation time: 00 hr 01 min 05 sec)
Heartbeat CPU 0 instructions: 30000011 cycles: 9220934 heartbeat IPC: 2.089 cumulative IPC: 2.089 (Simulation time: 00 hr 02 min 00 sec)
Heartbeat CPU 0 instructions: 40000015 cycles: 13667979 heartbeat IPC: 2.249 cumulative IPC: 2.166 (Simulation time: 00 hr 02 min 51 sec)
Heartbeat CPU 0 instructions: 50000015 cycles: 18443551 heartbeat IPC: 2.094 cumulative IPC: 2.141 (Simulation time: 00 hr 03 min 44 sec)
Heartbeat CPU 0 instructions: 60000017 cycles: 23233008 heartbeat IPC: 2.088 cumulative IPC: 2.128 (Simulation time: 00 hr 04 min 40 sec)
Heartbeat CPU 0 instructions: 70000020 cycles: 27687207 heartbeat IPC: 2.245 cumulative IPC: 2.15 (Simulation time: 00 hr 05 min 33 sec)
Heartbeat CPU 0 instructions: 80000021 cycles: 32465757 heartbeat IPC: 2.093 cumulative IPC: 2.14 (Simulation time: 00 hr 06 min 27 sec)
Heartbeat CPU 0 instructions: 90000024 cycles: 37252640 heartbeat IPC: 2.089 cumulative IPC: 2.133 (Simulation time: 00 hr 07 min 21 sec)
Heartbeat CPU 0 instructions: 100000027 cycles: 41707214 heartbeat IPC: 2.245 cumulative IPC: 2.146 (Simulation time: 00 hr 08 min 13 sec)
Heartbeat CPU 0 instructions: 110000028 cycles: 46483887 heartbeat IPC: 2.094 cumulative IPC: 2.14 (Simulation time: 00 hr 09 min 11 sec)
Simulation finished CPU 0 instructions: 100000000 cycles: 46842989 cumulative IPC: 2.135 (Simulation time: 00 hr 10 min 08 sec)
Simulation complete CPU 0 instructions: 100000000 cycles: 46842989 cumulative IPC: 2.135 (Simulation time: 00 hr 10 min 08 sec)

ChampSim completed all CPUs

=== Simulation ===
CPU 0 runs /home/ho/prefetch_aware_insertion_ptr/traces/spec2k17/434.zeusmp-10B.champsimtrace.xz

Region of Interest Statistics

CPU 0 cumulative IPC: 2.135 instructions: 100000000 cycles: 46842989
CPU 0 Branch Prediction Accuracy: 99.67% MPKI: 0.1851 Average ROB Occupancy at Mispredict: 275.5
Branch type MPKI
BRANCH_DIRECT_JUMP: 2e-05
BRANCH_INDIRECT: 0
BRANCH_CONDITIONAL: 0.1851
BRANCH_DIRECT_CALL: 0
BRANCH_INDIRECT_CALL: 0
BRANCH_RETURN: 0


====Backend Stall Breakdown====
ROB_STALL: 21203346
LQ_STALL: 1639696
SQ_STALL: 95742


====ROB Stall Breakdown====

== Average ==
ADDR_TRANS: 546.87964
REPLAY_LOAD: 86.973434
NON_REPLAY_LOAD: 9.598479

== Total ==
ADDR_TRANS: 1349699
REPLAY_LOAD: 258659
NON_REPLAY_LOAD: 19594988

== Counts ==
ADDR_TRANS: 2468
REPLAY_LOAD: 2974
NON_REPLAY_LOAD: 2041468

cpu0->cpu0_STLB TOTAL        ACCESS:    1282409 HIT:    1279011 MISS:       3398 MSHR_MERGE:          0
cpu0->cpu0_STLB LOAD         ACCESS:    1282409 HIT:    1279011 MISS:       3398 MSHR_MERGE:          0
cpu0->cpu0_STLB RFO          ACCESS:          0 HIT:          0 MISS:          0 MSHR_MERGE:          0
cpu0->cpu0_STLB PREFETCH     ACCESS:          0 HIT:          0 MISS:          0 MSHR_MERGE:          0
cpu0->cpu0_STLB WRITE        ACCESS:          0 HIT:          0 MISS:          0 MSHR_MERGE:          0
cpu0->cpu0_STLB TRANSLATION  ACCESS:          0 HIT:          0 MISS:          0 MSHR_MERGE:          0
cpu0->cpu0_STLB PREFETCH REQUESTED:          0 ISSUED:          0 USEFUL:          0 USELESS:          0
cpu0->cpu0_STLB AVERAGE MISS LATENCY: 653.6 cycles
cpu0->cpu0_L2C TOTAL        ACCESS:    3095962 HIT:    2759920 MISS:     336042 MSHR_MERGE:          0
cpu0->cpu0_L2C LOAD         ACCESS:    1631634 HIT:    1355127 MISS:     276507 MSHR_MERGE:          0
cpu0->cpu0_L2C RFO          ACCESS:     372420 HIT:     322146 MISS:      50274 MSHR_MERGE:          0
cpu0->cpu0_L2C PREFETCH     ACCESS:          0 HIT:          0 MISS:          0 MSHR_MERGE:          0
cpu0->cpu0_L2C WRITE        ACCESS:    1083911 HIT:    1082343 MISS:       1568 MSHR_MERGE:          0
cpu0->cpu0_L2C TRANSLATION  ACCESS:       7997 HIT:        304 MISS:       7693 MSHR_MERGE:          0
cpu0->cpu0_L2C PREFETCH REQUESTED:          0 ISSUED:          0 USEFUL:          0 USELESS:          0
cpu0->cpu0_L2C AVERAGE MISS LATENCY: 88.77 cycles
cpu0->cpu0_L1I TOTAL        ACCESS:   17057110 HIT:   17057110 MISS:          0 MSHR_MERGE:          0
cpu0->cpu0_L1I LOAD         ACCESS:   17057110 HIT:   17057110 MISS:          0 MSHR_MERGE:          0
cpu0->cpu0_L1I RFO          ACCESS:          0 HIT:          0 MISS:          0 MSHR_MERGE:          0
cpu0->cpu0_L1I PREFETCH     ACCESS:          0 HIT:          0 MISS:          0 MSHR_MERGE:          0
cpu0->cpu0_L1I WRITE        ACCESS:          0 HIT:          0 MISS:          0 MSHR_MERGE:          0
cpu0->cpu0_L1I TRANSLATION  ACCESS:          0 HIT:          0 MISS:          0 MSHR_MERGE:          0
cpu0->cpu0_L1I PREFETCH REQUESTED:          0 ISSUED:          0 USEFUL:          0 USELESS:          0
cpu0->cpu0_L1I AVERAGE MISS LATENCY: - cycles
cpu0->cpu0_L1D TOTAL        ACCESS:   22332295 HIT:   19742476 MISS:    2589819 MSHR_MERGE:     577479
cpu0->cpu0_L1D LOAD         ACCESS:   14924729 HIT:   12937464 MISS:    1987265 MSHR_MERGE:     355631
cpu0->cpu0_L1D RFO          ACCESS:          0 HIT:          0 MISS:          0 MSHR_MERGE:          0
cpu0->cpu0_L1D PREFETCH     ACCESS:          0 HIT:          0 MISS:          0 MSHR_MERGE:          0
cpu0->cpu0_L1D WRITE        ACCESS:    7399535 HIT:    6804988 MISS:     594547 MSHR_MERGE:     221838
cpu0->cpu0_L1D TRANSLATION  ACCESS:       8031 HIT:         24 MISS:       8007 MSHR_MERGE:         10
cpu0->cpu0_L1D PREFETCH REQUESTED:          0 ISSUED:          0 USEFUL:          0 USELESS:          0
cpu0->cpu0_L1D AVERAGE MISS LATENCY: 27.33 cycles
cpu0->cpu0_ITLB TOTAL        ACCESS:   14297911 HIT:   14297911 MISS:          0 MSHR_MERGE:          0
cpu0->cpu0_ITLB LOAD         ACCESS:   14297911 HIT:   14297911 MISS:          0 MSHR_MERGE:          0
cpu0->cpu0_ITLB RFO          ACCESS:          0 HIT:          0 MISS:          0 MSHR_MERGE:          0
cpu0->cpu0_ITLB PREFETCH     ACCESS:          0 HIT:          0 MISS:          0 MSHR_MERGE:          0
cpu0->cpu0_ITLB WRITE        ACCESS:          0 HIT:          0 MISS:          0 MSHR_MERGE:          0
cpu0->cpu0_ITLB TRANSLATION  ACCESS:          0 HIT:          0 MISS:          0 MSHR_MERGE:          0
cpu0->cpu0_ITLB PREFETCH REQUESTED:          0 ISSUED:          0 USEFUL:          0 USELESS:          0
cpu0->cpu0_ITLB AVERAGE MISS LATENCY: - cycles
cpu0->cpu0_DTLB TOTAL        ACCESS:   21424506 HIT:   19967707 MISS:    1456799 MSHR_MERGE:     174390
cpu0->cpu0_DTLB LOAD         ACCESS:   21424506 HIT:   19967707 MISS:    1456799 MSHR_MERGE:     174390
cpu0->cpu0_DTLB RFO          ACCESS:          0 HIT:          0 MISS:          0 MSHR_MERGE:          0
cpu0->cpu0_DTLB PREFETCH     ACCESS:          0 HIT:          0 MISS:          0 MSHR_MERGE:          0
cpu0->cpu0_DTLB WRITE        ACCESS:          0 HIT:          0 MISS:          0 MSHR_MERGE:          0
cpu0->cpu0_DTLB TRANSLATION  ACCESS:          0 HIT:          0 MISS:          0 MSHR_MERGE:          0
cpu0->cpu0_DTLB PREFETCH REQUESTED:          0 ISSUED:          0 USEFUL:          0 USELESS:          0
cpu0->cpu0_DTLB AVERAGE MISS LATENCY: 6.826 cycles
cpu0->LLC TOTAL        ACCESS:     454906 HIT:     246323 MISS:     208583 MSHR_MERGE:          0
cpu0->LLC LOAD         ACCESS:     276507 HIT:      74870 MISS:     201637 MSHR_MERGE:          0
cpu0->LLC RFO          ACCESS:      50274 HIT:      49803 MISS:        471 MSHR_MERGE:          0
cpu0->LLC PREFETCH     ACCESS:          0 HIT:          0 MISS:          0 MSHR_MERGE:          0
cpu0->LLC WRITE        ACCESS:     120432 HIT:     119923 MISS:        509 MSHR_MERGE:          0
cpu0->LLC TRANSLATION  ACCESS:       7693 HIT:       1727 MISS:       5966 MSHR_MERGE:          0
cpu0->LLC PREFETCH REQUESTED:          0 ISSUED:          0 USEFUL:          0 USELESS:          0
cpu0->LLC AVERAGE MISS LATENCY: 94.32 cycles

DRAM Statistics

Channel 0 RQ ROW_BUFFER_HIT:         19
  ROW_BUFFER_MISS:     208055
  AVG DBUS CONGESTED CYCLE: 5.128
Channel 0 WQ ROW_BUFFER_HIT:       7687
  ROW_BUFFER_MISS:      50376
  FULL:          0
Channel 0 REFRESHES ISSUED:       3904
[2025-09-15 18:53:33] END   suite=spec trace=434.zeusmp-10B (rc=0)
