[2025-09-15 17:18:02] START suite=spec trace=436.cactusADM-1804B
CMD: ./bin/champsim -w 20000000 -i 100000000 /home/ho/prefetch_aware_insertion_ptr/traces/spec2k17/436.cactusADM-1804B.champsimtrace.xz
[VMEM] WARNING: physical memory size is smaller than virtual memory size.

*** ChampSim Multicore Out-of-Order Simulator ***
Warmup Instructions: 20000000
Simulation Instructions: 100000000
Number of CPUs: 1
Page size: 4096

Off-chip DRAM Size: 16 GiB Channels: 1 Width: 64-bit Data Rate: 3205 MT/s
Heartbeat CPU 0 instructions: 10000000 cycles: 3327208 heartbeat IPC: 3.006 cumulative IPC: 3.006 (Simulation time: 00 hr 00 min 46 sec)
Heartbeat CPU 0 instructions: 20000000 cycles: 6868431 heartbeat IPC: 2.824 cumulative IPC: 2.912 (Simulation time: 00 hr 01 min 38 sec)
Warmup finished CPU 0 instructions: 20000000 cycles: 6868431 cumulative IPC: 2.912 (Simulation time: 00 hr 01 min 38 sec)
Warmup complete CPU 0 instructions: 20000000 cycles: 6868431 cumulative IPC: 2.912 (Simulation time: 00 hr 01 min 38 sec)
Heartbeat CPU 0 instructions: 30000002 cycles: 13368612 heartbeat IPC: 1.538 cumulative IPC: 1.538 (Simulation time: 00 hr 02 min 56 sec)
Heartbeat CPU 0 instructions: 40000002 cycles: 19830528 heartbeat IPC: 1.548 cumulative IPC: 1.543 (Simulation time: 00 hr 04 min 17 sec)
Heartbeat CPU 0 instructions: 50000002 cycles: 28161243 heartbeat IPC: 1.2 cumulative IPC: 1.409 (Simulation time: 00 hr 05 min 48 sec)
Heartbeat CPU 0 instructions: 60000002 cycles: 34620800 heartbeat IPC: 1.548 cumulative IPC: 1.441 (Simulation time: 00 hr 07 min 08 sec)
Heartbeat CPU 0 instructions: 70000003 cycles: 42917858 heartbeat IPC: 1.205 cumulative IPC: 1.387 (Simulation time: 00 hr 08 min 46 sec)
Heartbeat CPU 0 instructions: 80000004 cycles: 49387265 heartbeat IPC: 1.546 cumulative IPC: 1.411 (Simulation time: 00 hr 10 min 06 sec)
Heartbeat CPU 0 instructions: 90000006 cycles: 57704226 heartbeat IPC: 1.202 cumulative IPC: 1.377 (Simulation time: 00 hr 11 min 40 sec)
Heartbeat CPU 0 instructions: 100000010 cycles: 64175402 heartbeat IPC: 1.545 cumulative IPC: 1.396 (Simulation time: 00 hr 13 min 04 sec)
Heartbeat CPU 0 instructions: 110000012 cycles: 72449560 heartbeat IPC: 1.209 cumulative IPC: 1.372 (Simulation time: 00 hr 14 min 41 sec)
Simulation finished CPU 0 instructions: 100000003 cycles: 72074323 cumulative IPC: 1.387 (Simulation time: 00 hr 15 min 59 sec)
Simulation complete CPU 0 instructions: 100000003 cycles: 72074323 cumulative IPC: 1.387 (Simulation time: 00 hr 15 min 59 sec)

ChampSim completed all CPUs

=== Simulation ===
CPU 0 runs /home/ho/prefetch_aware_insertion_ptr/traces/spec2k17/436.cactusADM-1804B.champsimtrace.xz

Region of Interest Statistics

CPU 0 cumulative IPC: 1.387 instructions: 100000003 cycles: 72074323
CPU 0 Branch Prediction Accuracy: 99.17% MPKI: 0.01018 Average ROB Occupancy at Mispredict: 265.5
Branch type MPKI
BRANCH_DIRECT_JUMP: 0
BRANCH_INDIRECT: 0
BRANCH_CONDITIONAL: 0.01018
BRANCH_DIRECT_CALL: 0
BRANCH_INDIRECT_CALL: 0
BRANCH_RETURN: 0


====Backend Stall Breakdown====
ROB_STALL: 24805521
LQ_STALL: 280931
SQ_STALL: 22521720


====ROB Stall Breakdown====

== Average ==
ADDR_TRANS: 15.646259
REPLAY_LOAD: 13.55774
NON_REPLAY_LOAD: 11.017789

== Total ==
ADDR_TRANS: 1077730
REPLAY_LOAD: 1540905
NON_REPLAY_LOAD: 22186886

== Counts ==
ADDR_TRANS: 68881
REPLAY_LOAD: 113655
NON_REPLAY_LOAD: 2013733

cpu0->cpu0_STLB TOTAL        ACCESS:    2624009 HIT:    1714203 MISS:     909806 MSHR_MERGE:          0
cpu0->cpu0_STLB LOAD         ACCESS:    2624009 HIT:    1714203 MISS:     909806 MSHR_MERGE:          0
cpu0->cpu0_STLB RFO          ACCESS:          0 HIT:          0 MISS:          0 MSHR_MERGE:          0
cpu0->cpu0_STLB PREFETCH     ACCESS:          0 HIT:          0 MISS:          0 MSHR_MERGE:          0
cpu0->cpu0_STLB WRITE        ACCESS:          0 HIT:          0 MISS:          0 MSHR_MERGE:          0
cpu0->cpu0_STLB TRANSLATION  ACCESS:          0 HIT:          0 MISS:          0 MSHR_MERGE:          0
cpu0->cpu0_STLB PREFETCH REQUESTED:          0 ISSUED:          0 USEFUL:          0 USELESS:          0
cpu0->cpu0_STLB AVERAGE MISS LATENCY: 30.54 cycles
cpu0->cpu0_L2C TOTAL        ACCESS:    1760022 HIT:    1251247 MISS:     508775 MSHR_MERGE:          0
cpu0->cpu0_L2C LOAD         ACCESS:     651080 HIT:     293471 MISS:     357609 MSHR_MERGE:          0
cpu0->cpu0_L2C RFO          ACCESS:     152164 HIT:      10829 MISS:     141335 MSHR_MERGE:          0
cpu0->cpu0_L2C PREFETCH     ACCESS:          0 HIT:          0 MISS:          0 MSHR_MERGE:          0
cpu0->cpu0_L2C WRITE        ACCESS:     164615 HIT:     164468 MISS:        147 MSHR_MERGE:          0
cpu0->cpu0_L2C TRANSLATION  ACCESS:     792163 HIT:     782479 MISS:       9684 MSHR_MERGE:          0
cpu0->cpu0_L2C PREFETCH REQUESTED:          0 ISSUED:          0 USEFUL:          0 USELESS:          0
cpu0->cpu0_L2C AVERAGE MISS LATENCY: 134.7 cycles
cpu0->cpu0_L1I TOTAL        ACCESS:   22441381 HIT:   22441381 MISS:          0 MSHR_MERGE:          0
cpu0->cpu0_L1I LOAD         ACCESS:   22441381 HIT:   22441381 MISS:          0 MSHR_MERGE:          0
cpu0->cpu0_L1I RFO          ACCESS:          0 HIT:          0 MISS:          0 MSHR_MERGE:          0
cpu0->cpu0_L1I PREFETCH     ACCESS:          0 HIT:          0 MISS:          0 MSHR_MERGE:          0
cpu0->cpu0_L1I WRITE        ACCESS:          0 HIT:          0 MISS:          0 MSHR_MERGE:          0
cpu0->cpu0_L1I TRANSLATION  ACCESS:          0 HIT:          0 MISS:          0 MSHR_MERGE:          0
cpu0->cpu0_L1I PREFETCH REQUESTED:          0 ISSUED:          0 USEFUL:          0 USELESS:          0
cpu0->cpu0_L1I AVERAGE MISS LATENCY: - cycles
cpu0->cpu0_L1D TOTAL        ACCESS:   44071858 HIT:   42350260 MISS:    1721598 MSHR_MERGE:     126054
cpu0->cpu0_L1D LOAD         ACCESS:   25366573 HIT:   24711650 MISS:     654923 MSHR_MERGE:       3808
cpu0->cpu0_L1D RFO          ACCESS:          0 HIT:          0 MISS:          0 MSHR_MERGE:          0
cpu0->cpu0_L1D PREFETCH     ACCESS:          0 HIT:          0 MISS:          0 MSHR_MERGE:          0
cpu0->cpu0_L1D WRITE        ACCESS:   16050811 HIT:   15776301 MISS:     274510 MSHR_MERGE:     122244
cpu0->cpu0_L1D TRANSLATION  ACCESS:    2654474 HIT:    1862309 MISS:     792165 MSHR_MERGE:          2
cpu0->cpu0_L1D PREFETCH REQUESTED:          0 ISSUED:          0 USEFUL:          0 USELESS:          0
cpu0->cpu0_L1D AVERAGE MISS LATENCY: 55.01 cycles
cpu0->cpu0_ITLB TOTAL        ACCESS:   16364264 HIT:   16364264 MISS:          0 MSHR_MERGE:          0
cpu0->cpu0_ITLB LOAD         ACCESS:   16364264 HIT:   16364264 MISS:          0 MSHR_MERGE:          0
cpu0->cpu0_ITLB RFO          ACCESS:          0 HIT:          0 MISS:          0 MSHR_MERGE:          0
cpu0->cpu0_ITLB PREFETCH     ACCESS:          0 HIT:          0 MISS:          0 MSHR_MERGE:          0
cpu0->cpu0_ITLB WRITE        ACCESS:          0 HIT:          0 MISS:          0 MSHR_MERGE:          0
cpu0->cpu0_ITLB TRANSLATION  ACCESS:          0 HIT:          0 MISS:          0 MSHR_MERGE:          0
cpu0->cpu0_ITLB PREFETCH REQUESTED:          0 ISSUED:          0 USEFUL:          0 USELESS:          0
cpu0->cpu0_ITLB AVERAGE MISS LATENCY: - cycles
cpu0->cpu0_DTLB TOTAL        ACCESS:   37112259 HIT:   34419523 MISS:    2692736 MSHR_MERGE:      68727
cpu0->cpu0_DTLB LOAD         ACCESS:   37112259 HIT:   34419523 MISS:    2692736 MSHR_MERGE:      68727
cpu0->cpu0_DTLB RFO          ACCESS:          0 HIT:          0 MISS:          0 MSHR_MERGE:          0
cpu0->cpu0_DTLB PREFETCH     ACCESS:          0 HIT:          0 MISS:          0 MSHR_MERGE:          0
cpu0->cpu0_DTLB WRITE        ACCESS:          0 HIT:          0 MISS:          0 MSHR_MERGE:          0
cpu0->cpu0_DTLB TRANSLATION  ACCESS:          0 HIT:          0 MISS:          0 MSHR_MERGE:          0
cpu0->cpu0_DTLB PREFETCH REQUESTED:          0 ISSUED:          0 USEFUL:          0 USELESS:          0
cpu0->cpu0_DTLB AVERAGE MISS LATENCY: 15.94 cycles
cpu0->LLC TOTAL        ACCESS:     650853 HIT:     144541 MISS:     506312 MSHR_MERGE:          0
cpu0->LLC LOAD         ACCESS:     357609 HIT:        874 MISS:     356735 MSHR_MERGE:          0
cpu0->LLC RFO          ACCESS:     141335 HIT:        522 MISS:     140813 MSHR_MERGE:          0
cpu0->LLC PREFETCH     ACCESS:          0 HIT:          0 MISS:          0 MSHR_MERGE:          0
cpu0->LLC WRITE        ACCESS:     142225 HIT:     142044 MISS:        181 MSHR_MERGE:          0
cpu0->LLC TRANSLATION  ACCESS:       9684 HIT:       1101 MISS:       8583 MSHR_MERGE:          0
cpu0->LLC PREFETCH REQUESTED:          0 ISSUED:          0 USEFUL:          0 USELESS:          0
cpu0->LLC AVERAGE MISS LATENCY: 106.3 cycles

DRAM Statistics

Channel 0 RQ ROW_BUFFER_HIT:         29
  ROW_BUFFER_MISS:     506102
  AVG DBUS CONGESTED CYCLE: 6.503
Channel 0 WQ ROW_BUFFER_HIT:      37427
  ROW_BUFFER_MISS:     112404
  FULL:          0
Channel 0 REFRESHES ISSUED:       6006
[2025-09-15 17:34:01] END   suite=spec trace=436.cactusADM-1804B (rc=0)
