[2025-09-15 18:27:27] START suite=spec trace=437.leslie3d-134B
CMD: ./bin/champsim -w 20000000 -i 100000000 /home/ho/prefetch_aware_insertion_ptr/traces/spec2k17/437.leslie3d-134B.champsimtrace.xz
[VMEM] WARNING: physical memory size is smaller than virtual memory size.

*** ChampSim Multicore Out-of-Order Simulator ***
Warmup Instructions: 20000000
Simulation Instructions: 100000000
Number of CPUs: 1
Page size: 4096

Off-chip DRAM Size: 16 GiB Channels: 1 Width: 64-bit Data Rate: 3205 MT/s
Heartbeat CPU 0 instructions: 10000004 cycles: 2355423 heartbeat IPC: 4.246 cumulative IPC: 4.246 (Simulation time: 00 hr 00 min 33 sec)
Warmup finished CPU 0 instructions: 20000000 cycles: 4613774 cumulative IPC: 4.335 (Simulation time: 00 hr 01 min 08 sec)
Warmup complete CPU 0 instructions: 20000000 cycles: 4613774 cumulative IPC: 4.335 (Simulation time: 00 hr 01 min 08 sec)
Heartbeat CPU 0 instructions: 20000005 cycles: 4613775 heartbeat IPC: 4.428 cumulative IPC: 5 (Simulation time: 00 hr 01 min 08 sec)
Heartbeat CPU 0 instructions: 30000009 cycles: 10760664 heartbeat IPC: 1.627 cumulative IPC: 1.627 (Simulation time: 00 hr 02 min 11 sec)
Heartbeat CPU 0 instructions: 40000013 cycles: 16959558 heartbeat IPC: 1.613 cumulative IPC: 1.62 (Simulation time: 00 hr 03 min 16 sec)
Heartbeat CPU 0 instructions: 50000016 cycles: 23156558 heartbeat IPC: 1.614 cumulative IPC: 1.618 (Simulation time: 00 hr 04 min 18 sec)
Heartbeat CPU 0 instructions: 60000019 cycles: 29362109 heartbeat IPC: 1.611 cumulative IPC: 1.616 (Simulation time: 00 hr 05 min 20 sec)
Heartbeat CPU 0 instructions: 70000019 cycles: 35552719 heartbeat IPC: 1.615 cumulative IPC: 1.616 (Simulation time: 00 hr 06 min 27 sec)
Heartbeat CPU 0 instructions: 80000023 cycles: 41712120 heartbeat IPC: 1.624 cumulative IPC: 1.617 (Simulation time: 00 hr 07 min 27 sec)
Heartbeat CPU 0 instructions: 90000025 cycles: 47922184 heartbeat IPC: 1.61 cumulative IPC: 1.616 (Simulation time: 00 hr 08 min 30 sec)
Heartbeat CPU 0 instructions: 100000026 cycles: 54142467 heartbeat IPC: 1.608 cumulative IPC: 1.615 (Simulation time: 00 hr 09 min 33 sec)
Heartbeat CPU 0 instructions: 110000029 cycles: 60384615 heartbeat IPC: 1.602 cumulative IPC: 1.614 (Simulation time: 00 hr 10 min 33 sec)
Simulation finished CPU 0 instructions: 100000001 cycles: 61971085 cumulative IPC: 1.614 (Simulation time: 00 hr 11 min 37 sec)
Simulation complete CPU 0 instructions: 100000001 cycles: 61971085 cumulative IPC: 1.614 (Simulation time: 00 hr 11 min 37 sec)

ChampSim completed all CPUs

=== Simulation ===
CPU 0 runs /home/ho/prefetch_aware_insertion_ptr/traces/spec2k17/437.leslie3d-134B.champsimtrace.xz

Region of Interest Statistics

CPU 0 cumulative IPC: 1.614 instructions: 100000001 cycles: 61971085
CPU 0 Branch Prediction Accuracy: 99.11% MPKI: 0.2357 Average ROB Occupancy at Mispredict: 329.9
Branch type MPKI
BRANCH_DIRECT_JUMP: 0
BRANCH_INDIRECT: 0
BRANCH_CONDITIONAL: 0.2357
BRANCH_DIRECT_CALL: 0
BRANCH_INDIRECT_CALL: 0
BRANCH_RETURN: 0


====Backend Stall Breakdown====
ROB_STALL: 36895523
LQ_STALL: 496
SQ_STALL: 23675


====ROB Stall Breakdown====

== Average ==
ADDR_TRANS: 659.6673
REPLAY_LOAD: 92.78105
NON_REPLAY_LOAD: 17.3431

== Total ==
ADDR_TRANS: 2448685
REPLAY_LOAD: 416123
NON_REPLAY_LOAD: 34030715

== Counts ==
ADDR_TRANS: 3712
REPLAY_LOAD: 4485
NON_REPLAY_LOAD: 1962205

cpu0->cpu0_STLB TOTAL        ACCESS:      88003 HIT:      82436 MISS:       5567 MSHR_MERGE:          0
cpu0->cpu0_STLB LOAD         ACCESS:      88003 HIT:      82436 MISS:       5567 MSHR_MERGE:          0
cpu0->cpu0_STLB RFO          ACCESS:          0 HIT:          0 MISS:          0 MSHR_MERGE:          0
cpu0->cpu0_STLB PREFETCH     ACCESS:          0 HIT:          0 MISS:          0 MSHR_MERGE:          0
cpu0->cpu0_STLB WRITE        ACCESS:          0 HIT:          0 MISS:          0 MSHR_MERGE:          0
cpu0->cpu0_STLB TRANSLATION  ACCESS:          0 HIT:          0 MISS:          0 MSHR_MERGE:          0
cpu0->cpu0_STLB PREFETCH REQUESTED:          0 ISSUED:          0 USEFUL:          0 USELESS:          0
cpu0->cpu0_STLB AVERAGE MISS LATENCY: 694.5 cycles
cpu0->cpu0_L2C TOTAL        ACCESS:    1454945 HIT:     916470 MISS:     538475 MSHR_MERGE:          0
cpu0->cpu0_L2C LOAD         ACCESS:     935401 HIT:     422296 MISS:     513105 MSHR_MERGE:          0
cpu0->cpu0_L2C RFO          ACCESS:     184601 HIT:     170781 MISS:      13820 MSHR_MERGE:          0
cpu0->cpu0_L2C PREFETCH     ACCESS:          0 HIT:          0 MISS:          0 MSHR_MERGE:          0
cpu0->cpu0_L2C WRITE        ACCESS:     323809 HIT:     323393 MISS:        416 MSHR_MERGE:          0
cpu0->cpu0_L2C TRANSLATION  ACCESS:      11134 HIT:          0 MISS:      11134 MSHR_MERGE:          0
cpu0->cpu0_L2C PREFETCH REQUESTED:          0 ISSUED:          0 USEFUL:          0 USELESS:          0
cpu0->cpu0_L2C AVERAGE MISS LATENCY: 95.6 cycles
cpu0->cpu0_L1I TOTAL        ACCESS:   16605716 HIT:   16605716 MISS:          0 MSHR_MERGE:          0
cpu0->cpu0_L1I LOAD         ACCESS:   16605716 HIT:   16605716 MISS:          0 MSHR_MERGE:          0
cpu0->cpu0_L1I RFO          ACCESS:          0 HIT:          0 MISS:          0 MSHR_MERGE:          0
cpu0->cpu0_L1I PREFETCH     ACCESS:          0 HIT:          0 MISS:          0 MSHR_MERGE:          0
cpu0->cpu0_L1I WRITE        ACCESS:          0 HIT:          0 MISS:          0 MSHR_MERGE:          0
cpu0->cpu0_L1I TRANSLATION  ACCESS:          0 HIT:          0 MISS:          0 MSHR_MERGE:          0
cpu0->cpu0_L1I PREFETCH REQUESTED:          0 ISSUED:          0 USEFUL:          0 USELESS:          0
cpu0->cpu0_L1I AVERAGE MISS LATENCY: - cycles
cpu0->cpu0_L1D TOTAL        ACCESS:   30444152 HIT:   27841563 MISS:    2602589 MSHR_MERGE:    1471446
cpu0->cpu0_L1D LOAD         ACCESS:   26395978 HIT:   24262721 MISS:    2133257 MSHR_MERGE:    1197855
cpu0->cpu0_L1D RFO          ACCESS:          0 HIT:          0 MISS:          0 MSHR_MERGE:          0
cpu0->cpu0_L1D PREFETCH     ACCESS:          0 HIT:          0 MISS:          0 MSHR_MERGE:          0
cpu0->cpu0_L1D WRITE        ACCESS:    4037040 HIT:    3578842 MISS:     458198 MSHR_MERGE:     273591
cpu0->cpu0_L1D TRANSLATION  ACCESS:      11134 HIT:          0 MISS:      11134 MSHR_MERGE:          0
cpu0->cpu0_L1D PREFETCH REQUESTED:          0 ISSUED:          0 USEFUL:          0 USELESS:          0
cpu0->cpu0_L1D AVERAGE MISS LATENCY: 57.96 cycles
cpu0->cpu0_ITLB TOTAL        ACCESS:   13832986 HIT:   13832986 MISS:          0 MSHR_MERGE:          0
cpu0->cpu0_ITLB LOAD         ACCESS:   13832986 HIT:   13832986 MISS:          0 MSHR_MERGE:          0
cpu0->cpu0_ITLB RFO          ACCESS:          0 HIT:          0 MISS:          0 MSHR_MERGE:          0
cpu0->cpu0_ITLB PREFETCH     ACCESS:          0 HIT:          0 MISS:          0 MSHR_MERGE:          0
cpu0->cpu0_ITLB WRITE        ACCESS:          0 HIT:          0 MISS:          0 MSHR_MERGE:          0
cpu0->cpu0_ITLB TRANSLATION  ACCESS:          0 HIT:          0 MISS:          0 MSHR_MERGE:          0
cpu0->cpu0_ITLB PREFETCH REQUESTED:          0 ISSUED:          0 USEFUL:          0 USELESS:          0
cpu0->cpu0_ITLB AVERAGE MISS LATENCY: - cycles
cpu0->cpu0_DTLB TOTAL        ACCESS:   29028080 HIT:   28893728 MISS:     134352 MSHR_MERGE:      46349
cpu0->cpu0_DTLB LOAD         ACCESS:   29028080 HIT:   28893728 MISS:     134352 MSHR_MERGE:      46349
cpu0->cpu0_DTLB RFO          ACCESS:          0 HIT:          0 MISS:          0 MSHR_MERGE:          0
cpu0->cpu0_DTLB PREFETCH     ACCESS:          0 HIT:          0 MISS:          0 MSHR_MERGE:          0
cpu0->cpu0_DTLB WRITE        ACCESS:          0 HIT:          0 MISS:          0 MSHR_MERGE:          0
cpu0->cpu0_DTLB TRANSLATION  ACCESS:          0 HIT:          0 MISS:          0 MSHR_MERGE:          0
cpu0->cpu0_DTLB PREFETCH REQUESTED:          0 ISSUED:          0 USEFUL:          0 USELESS:          0
cpu0->cpu0_DTLB AVERAGE MISS LATENCY: 49 cycles
cpu0->LLC TOTAL        ACCESS:     653797 HIT:     283543 MISS:     370254 MSHR_MERGE:          0
cpu0->LLC LOAD         ACCESS:     513105 HIT:     157631 MISS:     355474 MSHR_MERGE:          0
cpu0->LLC RFO          ACCESS:      13820 HIT:      13743 MISS:         77 MSHR_MERGE:          0
cpu0->LLC PREFETCH     ACCESS:          0 HIT:          0 MISS:          0 MSHR_MERGE:          0
cpu0->LLC WRITE        ACCESS:     115738 HIT:     112155 MISS:       3583 MSHR_MERGE:          0
cpu0->LLC TRANSLATION  ACCESS:      11134 HIT:         14 MISS:      11120 MSHR_MERGE:          0
cpu0->LLC PREFETCH REQUESTED:          0 ISSUED:          0 USEFUL:          0 USELESS:          0
cpu0->LLC AVERAGE MISS LATENCY: 94.88 cycles

DRAM Statistics

Channel 0 RQ ROW_BUFFER_HIT:         11
  ROW_BUFFER_MISS:     366654
  AVG DBUS CONGESTED CYCLE: 7.517
Channel 0 WQ ROW_BUFFER_HIT:       5751
  ROW_BUFFER_MISS:      84417
  FULL:          0
Channel 0 REFRESHES ISSUED:       5164
[2025-09-15 18:39:05] END   suite=spec trace=437.leslie3d-134B (rc=0)
