[2025-09-15 16:15:05] START suite=spec trace=450.soplex-247B
CMD: ./bin/champsim -w 20000000 -i 100000000 /home/ho/prefetch_aware_insertion_ptr/traces/spec2k17/450.soplex-247B.champsimtrace.xz
[VMEM] WARNING: physical memory size is smaller than virtual memory size.

*** ChampSim Multicore Out-of-Order Simulator ***
Warmup Instructions: 20000000
Simulation Instructions: 100000000
Number of CPUs: 1
Page size: 4096

Off-chip DRAM Size: 16 GiB Channels: 1 Width: 64-bit Data Rate: 3205 MT/s
Heartbeat CPU 0 instructions: 10000004 cycles: 3149287 heartbeat IPC: 3.175 cumulative IPC: 3.175 (Simulation time: 00 hr 00 min 44 sec)
Heartbeat CPU 0 instructions: 20000004 cycles: 6310888 heartbeat IPC: 3.163 cumulative IPC: 3.169 (Simulation time: 00 hr 01 min 27 sec)
Warmup finished CPU 0 instructions: 20000004 cycles: 6310888 cumulative IPC: 3.169 (Simulation time: 00 hr 01 min 27 sec)
Warmup complete CPU 0 instructions: 20000004 cycles: 6310888 cumulative IPC: 3.169 (Simulation time: 00 hr 01 min 27 sec)
Heartbeat CPU 0 instructions: 30000008 cycles: 28335017 heartbeat IPC: 0.454 cumulative IPC: 0.454 (Simulation time: 00 hr 04 min 14 sec)
Heartbeat CPU 0 instructions: 40000011 cycles: 49255829 heartbeat IPC: 0.478 cumulative IPC: 0.4657 (Simulation time: 00 hr 06 min 36 sec)
Heartbeat CPU 0 instructions: 50000013 cycles: 70014025 heartbeat IPC: 0.4817 cumulative IPC: 0.4709 (Simulation time: 00 hr 08 min 54 sec)
Heartbeat CPU 0 instructions: 60000016 cycles: 90593904 heartbeat IPC: 0.4859 cumulative IPC: 0.4746 (Simulation time: 00 hr 11 min 12 sec)
Heartbeat CPU 0 instructions: 70000019 cycles: 113190584 heartbeat IPC: 0.4425 cumulative IPC: 0.4678 (Simulation time: 00 hr 13 min 44 sec)
Heartbeat CPU 0 instructions: 80000019 cycles: 134935121 heartbeat IPC: 0.4599 cumulative IPC: 0.4665 (Simulation time: 00 hr 16 min 20 sec)
Heartbeat CPU 0 instructions: 90000022 cycles: 156298426 heartbeat IPC: 0.4681 cumulative IPC: 0.4667 (Simulation time: 00 hr 18 min 52 sec)
Heartbeat CPU 0 instructions: 100000025 cycles: 176635730 heartbeat IPC: 0.4917 cumulative IPC: 0.4697 (Simulation time: 00 hr 21 min 18 sec)
Heartbeat CPU 0 instructions: 110000025 cycles: 213095327 heartbeat IPC: 0.2743 cumulative IPC: 0.4352 (Simulation time: 00 hr 24 min 47 sec)
Simulation finished CPU 0 instructions: 100000003 cycles: 221327448 cumulative IPC: 0.4518 (Simulation time: 00 hr 26 min 42 sec)
Simulation complete CPU 0 instructions: 100000003 cycles: 221327448 cumulative IPC: 0.4518 (Simulation time: 00 hr 26 min 42 sec)

ChampSim completed all CPUs

=== Simulation ===
CPU 0 runs /home/ho/prefetch_aware_insertion_ptr/traces/spec2k17/450.soplex-247B.champsimtrace.xz

Region of Interest Statistics

CPU 0 cumulative IPC: 0.4518 instructions: 100000003 cycles: 221327448
CPU 0 Branch Prediction Accuracy: 94.41% MPKI: 9.742 Average ROB Occupancy at Mispredict: 58.11
Branch type MPKI
BRANCH_DIRECT_JUMP: 0.00042
BRANCH_INDIRECT: 0.00015
BRANCH_CONDITIONAL: 9.74
BRANCH_DIRECT_CALL: 0.00024
BRANCH_INDIRECT_CALL: 0.00043
BRANCH_RETURN: 0.00086


====Backend Stall Breakdown====
ROB_STALL: 29254624
LQ_STALL: 1102402
SQ_STALL: 3038652


====ROB Stall Breakdown====

== Average ==
ADDR_TRANS: 162.23694
REPLAY_LOAD: 129.35014
NON_REPLAY_LOAD: 49.429577

== Total ==
ADDR_TRANS: 890843
REPLAY_LOAD: 1105297
NON_REPLAY_LOAD: 27258484

== Counts ==
ADDR_TRANS: 5491
REPLAY_LOAD: 8545
NON_REPLAY_LOAD: 551461

cpu0->cpu0_STLB TOTAL        ACCESS:     781146 HIT:     673897 MISS:     107249 MSHR_MERGE:          0
cpu0->cpu0_STLB LOAD         ACCESS:     781146 HIT:     673897 MISS:     107249 MSHR_MERGE:          0
cpu0->cpu0_STLB RFO          ACCESS:          0 HIT:          0 MISS:          0 MSHR_MERGE:          0
cpu0->cpu0_STLB PREFETCH     ACCESS:          0 HIT:          0 MISS:          0 MSHR_MERGE:          0
cpu0->cpu0_STLB WRITE        ACCESS:          0 HIT:          0 MISS:          0 MSHR_MERGE:          0
cpu0->cpu0_STLB TRANSLATION  ACCESS:          0 HIT:          0 MISS:          0 MSHR_MERGE:          0
cpu0->cpu0_STLB PREFETCH REQUESTED:          0 ISSUED:          0 USEFUL:          0 USELESS:          0
cpu0->cpu0_STLB AVERAGE MISS LATENCY: 262.1 cycles
cpu0->cpu0_L2C TOTAL        ACCESS:    7504892 HIT:    3347213 MISS:    4157679 MSHR_MERGE:          0
cpu0->cpu0_L2C LOAD         ACCESS:    4331729 HIT:     984919 MISS:    3346810 MSHR_MERGE:          0
cpu0->cpu0_L2C RFO          ACCESS:     770832 HIT:     124478 MISS:     646354 MSHR_MERGE:          0
cpu0->cpu0_L2C PREFETCH     ACCESS:          0 HIT:          0 MISS:          0 MSHR_MERGE:          0
cpu0->cpu0_L2C WRITE        ACCESS:    2232913 HIT:    2232822 MISS:         91 MSHR_MERGE:          0
cpu0->cpu0_L2C TRANSLATION  ACCESS:     169418 HIT:       4994 MISS:     164424 MSHR_MERGE:          0
cpu0->cpu0_L2C PREFETCH REQUESTED:          0 ISSUED:          0 USEFUL:          0 USELESS:          0
cpu0->cpu0_L2C AVERAGE MISS LATENCY: 137.7 cycles
cpu0->cpu0_L1I TOTAL        ACCESS:    7307197 HIT:    7306328 MISS:        869 MSHR_MERGE:        323
cpu0->cpu0_L1I LOAD         ACCESS:    7307197 HIT:    7306328 MISS:        869 MSHR_MERGE:        323
cpu0->cpu0_L1I RFO          ACCESS:          0 HIT:          0 MISS:          0 MSHR_MERGE:          0
cpu0->cpu0_L1I PREFETCH     ACCESS:          0 HIT:          0 MISS:          0 MSHR_MERGE:          0
cpu0->cpu0_L1I WRITE        ACCESS:          0 HIT:          0 MISS:          0 MSHR_MERGE:          0
cpu0->cpu0_L1I TRANSLATION  ACCESS:          0 HIT:          0 MISS:          0 MSHR_MERGE:          0
cpu0->cpu0_L1I PREFETCH REQUESTED:          0 ISSUED:          0 USEFUL:          0 USELESS:          0
cpu0->cpu0_L1I AVERAGE MISS LATENCY: 164.1 cycles
cpu0->cpu0_L1D TOTAL        ACCESS:   29405628 HIT:   18648869 MISS:   10756759 MSHR_MERGE:    5485234
cpu0->cpu0_L1D LOAD         ACCESS:   21756831 HIT:   13866542 MISS:    7890289 MSHR_MERGE:    3559040
cpu0->cpu0_L1D RFO          ACCESS:          0 HIT:          0 MISS:          0 MSHR_MERGE:          0
cpu0->cpu0_L1D PREFETCH     ACCESS:          0 HIT:          0 MISS:          0 MSHR_MERGE:          0
cpu0->cpu0_L1D WRITE        ACCESS:    7434003 HIT:    4738697 MISS:    2695306 MSHR_MERGE:    1924447
cpu0->cpu0_L1D TRANSLATION  ACCESS:     214794 HIT:      43630 MISS:     171164 MSHR_MERGE:       1747
cpu0->cpu0_L1D PREFETCH REQUESTED:          0 ISSUED:          0 USEFUL:          0 USELESS:          0
cpu0->cpu0_L1D AVERAGE MISS LATENCY: 121.3 cycles
cpu0->cpu0_ITLB TOTAL        ACCESS:    6078356 HIT:    6078356 MISS:          0 MSHR_MERGE:          0
cpu0->cpu0_ITLB LOAD         ACCESS:    6078356 HIT:    6078356 MISS:          0 MSHR_MERGE:          0
cpu0->cpu0_ITLB RFO          ACCESS:          0 HIT:          0 MISS:          0 MSHR_MERGE:          0
cpu0->cpu0_ITLB PREFETCH     ACCESS:          0 HIT:          0 MISS:          0 MSHR_MERGE:          0
cpu0->cpu0_ITLB WRITE        ACCESS:          0 HIT:          0 MISS:          0 MSHR_MERGE:          0
cpu0->cpu0_ITLB TRANSLATION  ACCESS:          0 HIT:          0 MISS:          0 MSHR_MERGE:          0
cpu0->cpu0_ITLB PREFETCH REQUESTED:          0 ISSUED:          0 USEFUL:          0 USELESS:          0
cpu0->cpu0_ITLB AVERAGE MISS LATENCY: - cycles
cpu0->cpu0_DTLB TOTAL        ACCESS:   28556792 HIT:   27171191 MISS:    1385601 MSHR_MERGE:     604455
cpu0->cpu0_DTLB LOAD         ACCESS:   28556792 HIT:   27171191 MISS:    1385601 MSHR_MERGE:     604455
cpu0->cpu0_DTLB RFO          ACCESS:          0 HIT:          0 MISS:          0 MSHR_MERGE:          0
cpu0->cpu0_DTLB PREFETCH     ACCESS:          0 HIT:          0 MISS:          0 MSHR_MERGE:          0
cpu0->cpu0_DTLB WRITE        ACCESS:          0 HIT:          0 MISS:          0 MSHR_MERGE:          0
cpu0->cpu0_DTLB TRANSLATION  ACCESS:          0 HIT:          0 MISS:          0 MSHR_MERGE:          0
cpu0->cpu0_DTLB PREFETCH REQUESTED:          0 ISSUED:          0 USEFUL:          0 USELESS:          0
cpu0->cpu0_DTLB AVERAGE MISS LATENCY: 41.13 cycles
cpu0->LLC TOTAL        ACCESS:    5786890 HIT:    2486503 MISS:    3300387 MSHR_MERGE:          0
cpu0->LLC LOAD         ACCESS:    3346808 HIT:     662390 MISS:    2684418 MSHR_MERGE:          0
cpu0->LLC RFO          ACCESS:     646352 HIT:     175787 MISS:     470565 MSHR_MERGE:          0
cpu0->LLC PREFETCH     ACCESS:          0 HIT:          0 MISS:          0 MSHR_MERGE:          0
cpu0->LLC WRITE        ACCESS:    1629306 HIT:    1628885 MISS:        421 MSHR_MERGE:          0
cpu0->LLC TRANSLATION  ACCESS:     164424 HIT:      19441 MISS:     144983 MSHR_MERGE:          0
cpu0->LLC PREFETCH REQUESTED:          0 ISSUED:          0 USEFUL:          0 USELESS:          0
cpu0->LLC AVERAGE MISS LATENCY: 135.2 cycles

DRAM Statistics

Channel 0 RQ ROW_BUFFER_HIT:     114001
  ROW_BUFFER_MISS:    3184628
  AVG DBUS CONGESTED CYCLE: 4.55
Channel 0 WQ ROW_BUFFER_HIT:     240746
  ROW_BUFFER_MISS:     977083
  FULL:          0
Channel 0 REFRESHES ISSUED:      18444
[2025-09-15 16:41:48] END   suite=spec trace=450.soplex-247B (rc=0)
