[2025-09-15 17:25:02] START suite=spec trace=453.povray-576B
CMD: ./bin/champsim -w 20000000 -i 100000000 /home/ho/prefetch_aware_insertion_ptr/traces/spec2k17/453.povray-576B.champsimtrace.xz
[VMEM] WARNING: physical memory size is smaller than virtual memory size.

*** ChampSim Multicore Out-of-Order Simulator ***
Warmup Instructions: 20000000
Simulation Instructions: 100000000
Number of CPUs: 1
Page size: 4096

Off-chip DRAM Size: 16 GiB Channels: 1 Width: 64-bit Data Rate: 3205 MT/s
Heartbeat CPU 0 instructions: 10000003 cycles: 2196364 heartbeat IPC: 4.553 cumulative IPC: 4.553 (Simulation time: 00 hr 00 min 36 sec)
Warmup finished CPU 0 instructions: 20000000 cycles: 4316033 cumulative IPC: 4.634 (Simulation time: 00 hr 01 min 09 sec)
Warmup complete CPU 0 instructions: 20000000 cycles: 4316033 cumulative IPC: 4.634 (Simulation time: 00 hr 01 min 09 sec)
Heartbeat CPU 0 instructions: 20000005 cycles: 4316034 heartbeat IPC: 4.718 cumulative IPC: 5 (Simulation time: 00 hr 01 min 09 sec)
Heartbeat CPU 0 instructions: 30000005 cycles: 10756684 heartbeat IPC: 1.553 cumulative IPC: 1.553 (Simulation time: 00 hr 02 min 07 sec)
Heartbeat CPU 0 instructions: 40000005 cycles: 17387361 heartbeat IPC: 1.508 cumulative IPC: 1.53 (Simulation time: 00 hr 03 min 08 sec)
Heartbeat CPU 0 instructions: 50000007 cycles: 24083000 heartbeat IPC: 1.494 cumulative IPC: 1.518 (Simulation time: 00 hr 04 min 09 sec)
Heartbeat CPU 0 instructions: 60000009 cycles: 30849824 heartbeat IPC: 1.478 cumulative IPC: 1.508 (Simulation time: 00 hr 05 min 08 sec)
Heartbeat CPU 0 instructions: 70000011 cycles: 37784121 heartbeat IPC: 1.442 cumulative IPC: 1.494 (Simulation time: 00 hr 06 min 04 sec)
Heartbeat CPU 0 instructions: 80000012 cycles: 44883788 heartbeat IPC: 1.409 cumulative IPC: 1.479 (Simulation time: 00 hr 07 min 02 sec)
Heartbeat CPU 0 instructions: 90000016 cycles: 51765675 heartbeat IPC: 1.453 cumulative IPC: 1.475 (Simulation time: 00 hr 08 min 03 sec)
Heartbeat CPU 0 instructions: 100000020 cycles: 58687076 heartbeat IPC: 1.445 cumulative IPC: 1.471 (Simulation time: 00 hr 09 min 02 sec)
Heartbeat CPU 0 instructions: 110000020 cycles: 65674833 heartbeat IPC: 1.431 cumulative IPC: 1.467 (Simulation time: 00 hr 09 min 59 sec)
Simulation finished CPU 0 instructions: 100000000 cycles: 68303079 cumulative IPC: 1.464 (Simulation time: 00 hr 11 min 00 sec)
Simulation complete CPU 0 instructions: 100000000 cycles: 68303079 cumulative IPC: 1.464 (Simulation time: 00 hr 11 min 00 sec)

ChampSim completed all CPUs

=== Simulation ===
CPU 0 runs /home/ho/prefetch_aware_insertion_ptr/traces/spec2k17/453.povray-576B.champsimtrace.xz

Region of Interest Statistics

CPU 0 cumulative IPC: 1.464 instructions: 100000000 cycles: 68303079
CPU 0 Branch Prediction Accuracy: 90.86% MPKI: 14.23 Average ROB Occupancy at Mispredict: 36.54
Branch type MPKI
BRANCH_DIRECT_JUMP: 0.00025
BRANCH_INDIRECT: 0.00475
BRANCH_CONDITIONAL: 12.57
BRANCH_DIRECT_CALL: 0.00015
BRANCH_INDIRECT_CALL: 0.7801
BRANCH_RETURN: 0.877


====Backend Stall Breakdown====
ROB_STALL: 662994
LQ_STALL: 10236
SQ_STALL: 800189


====ROB Stall Breakdown====

== Average ==
ADDR_TRANS: 466
REPLAY_LOAD: 83
NON_REPLAY_LOAD: 4.5319247

== Total ==
ADDR_TRANS: 466
REPLAY_LOAD: 83
NON_REPLAY_LOAD: 662445

== Counts ==
ADDR_TRANS: 1
REPLAY_LOAD: 1
NON_REPLAY_LOAD: 146173

cpu0->cpu0_STLB TOTAL        ACCESS:     263709 HIT:     263684 MISS:         25 MSHR_MERGE:          0
cpu0->cpu0_STLB LOAD         ACCESS:     263709 HIT:     263684 MISS:         25 MSHR_MERGE:          0
cpu0->cpu0_STLB RFO          ACCESS:          0 HIT:          0 MISS:          0 MSHR_MERGE:          0
cpu0->cpu0_STLB PREFETCH     ACCESS:          0 HIT:          0 MISS:          0 MSHR_MERGE:          0
cpu0->cpu0_STLB WRITE        ACCESS:          0 HIT:          0 MISS:          0 MSHR_MERGE:          0
cpu0->cpu0_STLB TRANSLATION  ACCESS:          0 HIT:          0 MISS:          0 MSHR_MERGE:          0
cpu0->cpu0_STLB PREFETCH REQUESTED:          0 ISSUED:          0 USEFUL:          0 USELESS:          0
cpu0->cpu0_STLB AVERAGE MISS LATENCY: 630.1 cycles
cpu0->cpu0_L2C TOTAL        ACCESS:    1042654 HIT:    1041087 MISS:       1567 MSHR_MERGE:          0
cpu0->cpu0_L2C LOAD         ACCESS:     831007 HIT:     829625 MISS:       1382 MSHR_MERGE:          0
cpu0->cpu0_L2C RFO          ACCESS:      90902 HIT:      90759 MISS:        143 MSHR_MERGE:          0
cpu0->cpu0_L2C PREFETCH     ACCESS:          0 HIT:          0 MISS:          0 MSHR_MERGE:          0
cpu0->cpu0_L2C WRITE        ACCESS:     120700 HIT:     120700 MISS:          0 MSHR_MERGE:          0
cpu0->cpu0_L2C TRANSLATION  ACCESS:         45 HIT:          3 MISS:         42 MSHR_MERGE:          0
cpu0->cpu0_L2C PREFETCH REQUESTED:          0 ISSUED:          0 USEFUL:          0 USELESS:          0
cpu0->cpu0_L2C AVERAGE MISS LATENCY: 99.37 cycles
cpu0->cpu0_L1I TOTAL        ACCESS:    7885144 HIT:    7453518 MISS:     431626 MSHR_MERGE:     119518
cpu0->cpu0_L1I LOAD         ACCESS:    7885144 HIT:    7453518 MISS:     431626 MSHR_MERGE:     119518
cpu0->cpu0_L1I RFO          ACCESS:          0 HIT:          0 MISS:          0 MSHR_MERGE:          0
cpu0->cpu0_L1I PREFETCH     ACCESS:          0 HIT:          0 MISS:          0 MSHR_MERGE:          0
cpu0->cpu0_L1I WRITE        ACCESS:          0 HIT:          0 MISS:          0 MSHR_MERGE:          0
cpu0->cpu0_L1I TRANSLATION  ACCESS:          0 HIT:          0 MISS:          0 MSHR_MERGE:          0
cpu0->cpu0_L1I PREFETCH REQUESTED:          0 ISSUED:          0 USEFUL:          0 USELESS:          0
cpu0->cpu0_L1I AVERAGE MISS LATENCY: 11.22 cycles
cpu0->cpu0_L1D TOTAL        ACCESS:   33903017 HIT:   32955977 MISS:     947040 MSHR_MERGE:     337181
cpu0->cpu0_L1D LOAD         ACCESS:   19282414 HIT:   18557769 MISS:     724645 MSHR_MERGE:     205734
cpu0->cpu0_L1D RFO          ACCESS:          0 HIT:          0 MISS:          0 MSHR_MERGE:          0
cpu0->cpu0_L1D PREFETCH     ACCESS:          0 HIT:          0 MISS:          0 MSHR_MERGE:          0
cpu0->cpu0_L1D WRITE        ACCESS:   14620553 HIT:   14398203 MISS:     222350 MSHR_MERGE:     131447
cpu0->cpu0_L1D TRANSLATION  ACCESS:         50 HIT:          5 MISS:         45 MSHR_MERGE:          0
cpu0->cpu0_L1D PREFETCH REQUESTED:          0 ISSUED:          0 USEFUL:          0 USELESS:          0
cpu0->cpu0_L1D AVERAGE MISS LATENCY: 12.28 cycles
cpu0->cpu0_ITLB TOTAL        ACCESS:    6875297 HIT:    6840159 MISS:      35138 MSHR_MERGE:      22834
cpu0->cpu0_ITLB LOAD         ACCESS:    6875297 HIT:    6840159 MISS:      35138 MSHR_MERGE:      22834
cpu0->cpu0_ITLB RFO          ACCESS:          0 HIT:          0 MISS:          0 MSHR_MERGE:          0
cpu0->cpu0_ITLB PREFETCH     ACCESS:          0 HIT:          0 MISS:          0 MSHR_MERGE:          0
cpu0->cpu0_ITLB WRITE        ACCESS:          0 HIT:          0 MISS:          0 MSHR_MERGE:          0
cpu0->cpu0_ITLB TRANSLATION  ACCESS:          0 HIT:          0 MISS:          0 MSHR_MERGE:          0
cpu0->cpu0_ITLB PREFETCH REQUESTED:          0 ISSUED:          0 USEFUL:          0 USELESS:          0
cpu0->cpu0_ITLB AVERAGE MISS LATENCY: 5.109 cycles
cpu0->cpu0_DTLB TOTAL        ACCESS:   32020147 HIT:   31572490 MISS:     447657 MSHR_MERGE:     196252
cpu0->cpu0_DTLB LOAD         ACCESS:   32020147 HIT:   31572490 MISS:     447657 MSHR_MERGE:     196252
cpu0->cpu0_DTLB RFO          ACCESS:          0 HIT:          0 MISS:          0 MSHR_MERGE:          0
cpu0->cpu0_DTLB PREFETCH     ACCESS:          0 HIT:          0 MISS:          0 MSHR_MERGE:          0
cpu0->cpu0_DTLB WRITE        ACCESS:          0 HIT:          0 MISS:          0 MSHR_MERGE:          0
cpu0->cpu0_DTLB TRANSLATION  ACCESS:          0 HIT:          0 MISS:          0 MSHR_MERGE:          0
cpu0->cpu0_DTLB PREFETCH REQUESTED:          0 ISSUED:          0 USEFUL:          0 USELESS:          0
cpu0->cpu0_DTLB AVERAGE MISS LATENCY: 5.058 cycles
cpu0->LLC TOTAL        ACCESS:       1866 HIT:        534 MISS:       1332 MSHR_MERGE:          0
cpu0->LLC LOAD         ACCESS:       1382 HIT:        184 MISS:       1198 MSHR_MERGE:          0
cpu0->LLC RFO          ACCESS:        143 HIT:         51 MISS:         92 MSHR_MERGE:          0
cpu0->LLC PREFETCH     ACCESS:          0 HIT:          0 MISS:          0 MSHR_MERGE:          0
cpu0->LLC WRITE        ACCESS:        299 HIT:        299 MISS:          0 MSHR_MERGE:          0
cpu0->LLC TRANSLATION  ACCESS:         42 HIT:          0 MISS:         42 MSHR_MERGE:          0
cpu0->LLC PREFETCH REQUESTED:          0 ISSUED:          0 USEFUL:          0 USELESS:          0
cpu0->LLC AVERAGE MISS LATENCY: 81.03 cycles

DRAM Statistics

Channel 0 RQ ROW_BUFFER_HIT:         23
  ROW_BUFFER_MISS:       1309
  AVG DBUS CONGESTED CYCLE: 2.914
Channel 0 WQ ROW_BUFFER_HIT:          0
  ROW_BUFFER_MISS:          0
  FULL:          0
Channel 0 REFRESHES ISSUED:       5692
[2025-09-15 17:36:03] END   suite=spec trace=453.povray-576B (rc=0)
