[2025-09-15 16:14:16] START suite=spec trace=456.hmmer-88B
CMD: ./bin/champsim -w 20000000 -i 100000000 /home/ho/prefetch_aware_insertion_ptr/traces/spec2k17/456.hmmer-88B.champsimtrace.xz
[VMEM] WARNING: physical memory size is smaller than virtual memory size.

*** ChampSim Multicore Out-of-Order Simulator ***
Warmup Instructions: 20000000
Simulation Instructions: 100000000
Number of CPUs: 1
Page size: 4096

Off-chip DRAM Size: 16 GiB Channels: 1 Width: 64-bit Data Rate: 3205 MT/s
Heartbeat CPU 0 instructions: 10000001 cycles: 2217800 heartbeat IPC: 4.509 cumulative IPC: 4.509 (Simulation time: 00 hr 00 min 37 sec)
Heartbeat CPU 0 instructions: 20000004 cycles: 4409962 heartbeat IPC: 4.562 cumulative IPC: 4.535 (Simulation time: 00 hr 01 min 14 sec)
Warmup finished CPU 0 instructions: 20000004 cycles: 4409962 cumulative IPC: 4.535 (Simulation time: 00 hr 01 min 14 sec)
Warmup complete CPU 0 instructions: 20000004 cycles: 4409962 cumulative IPC: 4.535 (Simulation time: 00 hr 01 min 14 sec)
Heartbeat CPU 0 instructions: 30000004 cycles: 7708518 heartbeat IPC: 3.032 cumulative IPC: 3.032 (Simulation time: 00 hr 02 min 05 sec)
Heartbeat CPU 0 instructions: 40000006 cycles: 11165205 heartbeat IPC: 2.893 cumulative IPC: 2.961 (Simulation time: 00 hr 02 min 58 sec)
Heartbeat CPU 0 instructions: 50000006 cycles: 14594432 heartbeat IPC: 2.916 cumulative IPC: 2.946 (Simulation time: 00 hr 03 min 51 sec)
Heartbeat CPU 0 instructions: 60000010 cycles: 18099842 heartbeat IPC: 2.853 cumulative IPC: 2.922 (Simulation time: 00 hr 04 min 41 sec)
Heartbeat CPU 0 instructions: 70000012 cycles: 21549132 heartbeat IPC: 2.899 cumulative IPC: 2.917 (Simulation time: 00 hr 05 min 31 sec)
Heartbeat CPU 0 instructions: 80000016 cycles: 24981751 heartbeat IPC: 2.913 cumulative IPC: 2.917 (Simulation time: 00 hr 06 min 20 sec)
Heartbeat CPU 0 instructions: 90000017 cycles: 28427235 heartbeat IPC: 2.902 cumulative IPC: 2.915 (Simulation time: 00 hr 07 min 09 sec)
Heartbeat CPU 0 instructions: 100000017 cycles: 31856264 heartbeat IPC: 2.916 cumulative IPC: 2.915 (Simulation time: 00 hr 08 min 00 sec)
Heartbeat CPU 0 instructions: 110000019 cycles: 35279364 heartbeat IPC: 2.921 cumulative IPC: 2.916 (Simulation time: 00 hr 08 min 51 sec)
Simulation finished CPU 0 instructions: 100000001 cycles: 34316007 cumulative IPC: 2.914 (Simulation time: 00 hr 09 min 41 sec)
Simulation complete CPU 0 instructions: 100000001 cycles: 34316007 cumulative IPC: 2.914 (Simulation time: 00 hr 09 min 41 sec)

ChampSim completed all CPUs

=== Simulation ===
CPU 0 runs /home/ho/prefetch_aware_insertion_ptr/traces/spec2k17/456.hmmer-88B.champsimtrace.xz

Region of Interest Statistics

CPU 0 cumulative IPC: 2.914 instructions: 100000001 cycles: 34316007
CPU 0 Branch Prediction Accuracy: 99.41% MPKI: 0.2587 Average ROB Occupancy at Mispredict: 179.3
Branch type MPKI
BRANCH_DIRECT_JUMP: 9e-05
BRANCH_INDIRECT: 0.00051
BRANCH_CONDITIONAL: 0.258
BRANCH_DIRECT_CALL: 0
BRANCH_INDIRECT_CALL: 8e-05
BRANCH_RETURN: 3e-05


====Backend Stall Breakdown====
ROB_STALL: 9893461
LQ_STALL: 110408
SQ_STALL: 6897


====ROB Stall Breakdown====

== Average ==
ADDR_TRANS: -nan
REPLAY_LOAD: -nan
NON_REPLAY_LOAD: 4.9758043

== Total ==
ADDR_TRANS: 0
REPLAY_LOAD: 0
NON_REPLAY_LOAD: 9893461

== Counts ==
ADDR_TRANS: 0
REPLAY_LOAD: 0
NON_REPLAY_LOAD: 1988314

cpu0->cpu0_STLB TOTAL        ACCESS:       6810 HIT:       6394 MISS:        416 MSHR_MERGE:          0
cpu0->cpu0_STLB LOAD         ACCESS:       6810 HIT:       6394 MISS:        416 MSHR_MERGE:          0
cpu0->cpu0_STLB RFO          ACCESS:          0 HIT:          0 MISS:          0 MSHR_MERGE:          0
cpu0->cpu0_STLB PREFETCH     ACCESS:          0 HIT:          0 MISS:          0 MSHR_MERGE:          0
cpu0->cpu0_STLB WRITE        ACCESS:          0 HIT:          0 MISS:          0 MSHR_MERGE:          0
cpu0->cpu0_STLB TRANSLATION  ACCESS:          0 HIT:          0 MISS:          0 MSHR_MERGE:          0
cpu0->cpu0_STLB PREFETCH REQUESTED:          0 ISSUED:          0 USEFUL:          0 USELESS:          0
cpu0->cpu0_STLB AVERAGE MISS LATENCY: 581.3 cycles
cpu0->cpu0_L2C TOTAL        ACCESS:     672608 HIT:     394307 MISS:     278301 MSHR_MERGE:          0
cpu0->cpu0_L2C LOAD         ACCESS:     138746 HIT:     126417 MISS:      12329 MSHR_MERGE:          0
cpu0->cpu0_L2C RFO          ACCESS:     266354 HIT:        886 MISS:     265468 MSHR_MERGE:          0
cpu0->cpu0_L2C PREFETCH     ACCESS:          0 HIT:          0 MISS:          0 MSHR_MERGE:          0
cpu0->cpu0_L2C WRITE        ACCESS:     266985 HIT:     266956 MISS:         29 MSHR_MERGE:          0
cpu0->cpu0_L2C TRANSLATION  ACCESS:        523 HIT:         48 MISS:        475 MSHR_MERGE:          0
cpu0->cpu0_L2C PREFETCH REQUESTED:          0 ISSUED:          0 USEFUL:          0 USELESS:          0
cpu0->cpu0_L2C AVERAGE MISS LATENCY: 80.46 cycles
cpu0->cpu0_L1I TOTAL        ACCESS:   17333324 HIT:   17333298 MISS:         26 MSHR_MERGE:          3
cpu0->cpu0_L1I LOAD         ACCESS:   17333324 HIT:   17333298 MISS:         26 MSHR_MERGE:          3
cpu0->cpu0_L1I RFO          ACCESS:          0 HIT:          0 MISS:          0 MSHR_MERGE:          0
cpu0->cpu0_L1I PREFETCH     ACCESS:          0 HIT:          0 MISS:          0 MSHR_MERGE:          0
cpu0->cpu0_L1I WRITE        ACCESS:          0 HIT:          0 MISS:          0 MSHR_MERGE:          0
cpu0->cpu0_L1I TRANSLATION  ACCESS:          0 HIT:          0 MISS:          0 MSHR_MERGE:          0
cpu0->cpu0_L1I PREFETCH REQUESTED:          0 ISSUED:          0 USEFUL:          0 USELESS:          0
cpu0->cpu0_L1I AVERAGE MISS LATENCY: 142.3 cycles
cpu0->cpu0_L1D TOTAL        ACCESS:   32844663 HIT:   29518726 MISS:    3325937 MSHR_MERGE:    2920337
cpu0->cpu0_L1D LOAD         ACCESS:   22072000 HIT:   21874769 MISS:     197231 MSHR_MERGE:      58508
cpu0->cpu0_L1D RFO          ACCESS:          0 HIT:          0 MISS:          0 MSHR_MERGE:          0
cpu0->cpu0_L1D PREFETCH     ACCESS:          0 HIT:          0 MISS:          0 MSHR_MERGE:          0
cpu0->cpu0_L1D WRITE        ACCESS:   10771831 HIT:    7643651 MISS:    3128180 MSHR_MERGE:    2861826
cpu0->cpu0_L1D TRANSLATION  ACCESS:        832 HIT:        306 MISS:        526 MSHR_MERGE:          3
cpu0->cpu0_L1D PREFETCH REQUESTED:          0 ISSUED:          0 USEFUL:          0 USELESS:          0
cpu0->cpu0_L1D AVERAGE MISS LATENCY: 67.89 cycles
cpu0->cpu0_ITLB TOTAL        ACCESS:   14492097 HIT:   14492091 MISS:          6 MSHR_MERGE:          4
cpu0->cpu0_ITLB LOAD         ACCESS:   14492097 HIT:   14492091 MISS:          6 MSHR_MERGE:          4
cpu0->cpu0_ITLB RFO          ACCESS:          0 HIT:          0 MISS:          0 MSHR_MERGE:          0
cpu0->cpu0_ITLB PREFETCH     ACCESS:          0 HIT:          0 MISS:          0 MSHR_MERGE:          0
cpu0->cpu0_ITLB WRITE        ACCESS:          0 HIT:          0 MISS:          0 MSHR_MERGE:          0
cpu0->cpu0_ITLB TRANSLATION  ACCESS:          0 HIT:          0 MISS:          0 MSHR_MERGE:          0
cpu0->cpu0_ITLB PREFETCH REQUESTED:          0 ISSUED:          0 USEFUL:          0 USELESS:          0
cpu0->cpu0_ITLB AVERAGE MISS LATENCY: 680.5 cycles
cpu0->cpu0_DTLB TOTAL        ACCESS:   31028971 HIT:   31015773 MISS:      13198 MSHR_MERGE:       6390
cpu0->cpu0_DTLB LOAD         ACCESS:   31028971 HIT:   31015773 MISS:      13198 MSHR_MERGE:       6390
cpu0->cpu0_DTLB RFO          ACCESS:          0 HIT:          0 MISS:          0 MSHR_MERGE:          0
cpu0->cpu0_DTLB PREFETCH     ACCESS:          0 HIT:          0 MISS:          0 MSHR_MERGE:          0
cpu0->cpu0_DTLB WRITE        ACCESS:          0 HIT:          0 MISS:          0 MSHR_MERGE:          0
cpu0->cpu0_DTLB TRANSLATION  ACCESS:          0 HIT:          0 MISS:          0 MSHR_MERGE:          0
cpu0->cpu0_DTLB PREFETCH REQUESTED:          0 ISSUED:          0 USEFUL:          0 USELESS:          0
cpu0->cpu0_DTLB AVERAGE MISS LATENCY: 40.39 cycles
cpu0->LLC TOTAL        ACCESS:     545283 HIT:     413696 MISS:     131587 MSHR_MERGE:          0
cpu0->LLC LOAD         ACCESS:      12329 HIT:       8711 MISS:       3618 MSHR_MERGE:          0
cpu0->LLC RFO          ACCESS:     265468 HIT:     137980 MISS:     127488 MSHR_MERGE:          0
cpu0->LLC PREFETCH     ACCESS:          0 HIT:          0 MISS:          0 MSHR_MERGE:          0
cpu0->LLC WRITE        ACCESS:     267011 HIT:     267005 MISS:          6 MSHR_MERGE:          0
cpu0->LLC TRANSLATION  ACCESS:        475 HIT:          0 MISS:        475 MSHR_MERGE:          0
cpu0->LLC PREFETCH REQUESTED:          0 ISSUED:          0 USEFUL:          0 USELESS:          0
cpu0->LLC AVERAGE MISS LATENCY: 105.7 cycles

DRAM Statistics

Channel 0 RQ ROW_BUFFER_HIT:         13
  ROW_BUFFER_MISS:     131569
  AVG DBUS CONGESTED CYCLE: 3.275
Channel 0 WQ ROW_BUFFER_HIT:       2073
  ROW_BUFFER_MISS:     125986
  FULL:          0
Channel 0 REFRESHES ISSUED:       2860
[2025-09-15 16:23:57] END   suite=spec trace=456.hmmer-88B (rc=0)
