[2025-09-15 16:22:54] START suite=spec trace=458.sjeng-1088B
CMD: ./bin/champsim -w 20000000 -i 100000000 /home/ho/prefetch_aware_insertion_ptr/traces/spec2k17/458.sjeng-1088B.champsimtrace.xz
[VMEM] WARNING: physical memory size is smaller than virtual memory size.

*** ChampSim Multicore Out-of-Order Simulator ***
Warmup Instructions: 20000000
Simulation Instructions: 100000000
Number of CPUs: 1
Page size: 4096

Off-chip DRAM Size: 16 GiB Channels: 1 Width: 64-bit Data Rate: 3205 MT/s
Heartbeat CPU 0 instructions: 10000002 cycles: 2814139 heartbeat IPC: 3.553 cumulative IPC: 3.553 (Simulation time: 00 hr 00 min 35 sec)
Heartbeat CPU 0 instructions: 20000003 cycles: 5541453 heartbeat IPC: 3.667 cumulative IPC: 3.609 (Simulation time: 00 hr 01 min 11 sec)
Warmup finished CPU 0 instructions: 20000003 cycles: 5541453 cumulative IPC: 3.609 (Simulation time: 00 hr 01 min 11 sec)
Warmup complete CPU 0 instructions: 20000003 cycles: 5541453 cumulative IPC: 3.609 (Simulation time: 00 hr 01 min 11 sec)
Heartbeat CPU 0 instructions: 30000005 cycles: 15340511 heartbeat IPC: 1.021 cumulative IPC: 1.021 (Simulation time: 00 hr 02 min 20 sec)
Heartbeat CPU 0 instructions: 40000005 cycles: 24905425 heartbeat IPC: 1.045 cumulative IPC: 1.033 (Simulation time: 00 hr 03 min 27 sec)
Heartbeat CPU 0 instructions: 50000005 cycles: 34822392 heartbeat IPC: 1.008 cumulative IPC: 1.025 (Simulation time: 00 hr 04 min 31 sec)
Heartbeat CPU 0 instructions: 60000008 cycles: 44621285 heartbeat IPC: 1.021 cumulative IPC: 1.024 (Simulation time: 00 hr 05 min 39 sec)
Heartbeat CPU 0 instructions: 70000012 cycles: 54240039 heartbeat IPC: 1.04 cumulative IPC: 1.027 (Simulation time: 00 hr 06 min 42 sec)
Heartbeat CPU 0 instructions: 80000012 cycles: 63574147 heartbeat IPC: 1.071 cumulative IPC: 1.034 (Simulation time: 00 hr 07 min 39 sec)
Heartbeat CPU 0 instructions: 90000013 cycles: 73014663 heartbeat IPC: 1.059 cumulative IPC: 1.037 (Simulation time: 00 hr 08 min 41 sec)
Heartbeat CPU 0 instructions: 100000013 cycles: 82647550 heartbeat IPC: 1.038 cumulative IPC: 1.038 (Simulation time: 00 hr 09 min 49 sec)
Heartbeat CPU 0 instructions: 110000013 cycles: 92108207 heartbeat IPC: 1.057 cumulative IPC: 1.04 (Simulation time: 00 hr 10 min 56 sec)
Simulation finished CPU 0 instructions: 100000001 cycles: 96176817 cumulative IPC: 1.04 (Simulation time: 00 hr 12 min 05 sec)
Simulation complete CPU 0 instructions: 100000001 cycles: 96176817 cumulative IPC: 1.04 (Simulation time: 00 hr 12 min 05 sec)

ChampSim completed all CPUs

=== Simulation ===
CPU 0 runs /home/ho/prefetch_aware_insertion_ptr/traces/spec2k17/458.sjeng-1088B.champsimtrace.xz

Region of Interest Statistics

CPU 0 cumulative IPC: 1.04 instructions: 100000001 cycles: 96176817
CPU 0 Branch Prediction Accuracy: 86.17% MPKI: 30.55 Average ROB Occupancy at Mispredict: 18.03
Branch type MPKI
BRANCH_DIRECT_JUMP: 0.01351
BRANCH_INDIRECT: 0.8936
BRANCH_CONDITIONAL: 29.1
BRANCH_DIRECT_CALL: 9e-05
BRANCH_INDIRECT_CALL: 0.4355
BRANCH_RETURN: 0.1052


====Backend Stall Breakdown====
ROB_STALL: 32286
LQ_STALL: 0
SQ_STALL: 662558


====ROB Stall Breakdown====

== Average ==
ADDR_TRANS: 496.6111
REPLAY_LOAD: 86.888885
NON_REPLAY_LOAD: 6.0626216

== Total ==
ADDR_TRANS: 8939
REPLAY_LOAD: 1564
NON_REPLAY_LOAD: 21783

== Counts ==
ADDR_TRANS: 18
REPLAY_LOAD: 18
NON_REPLAY_LOAD: 3593

cpu0->cpu0_STLB TOTAL        ACCESS:     190727 HIT:     161768 MISS:      28959 MSHR_MERGE:          0
cpu0->cpu0_STLB LOAD         ACCESS:     190727 HIT:     161768 MISS:      28959 MSHR_MERGE:          0
cpu0->cpu0_STLB RFO          ACCESS:          0 HIT:          0 MISS:          0 MSHR_MERGE:          0
cpu0->cpu0_STLB PREFETCH     ACCESS:          0 HIT:          0 MISS:          0 MSHR_MERGE:          0
cpu0->cpu0_STLB WRITE        ACCESS:          0 HIT:          0 MISS:          0 MSHR_MERGE:          0
cpu0->cpu0_STLB TRANSLATION  ACCESS:          0 HIT:          0 MISS:          0 MSHR_MERGE:          0
cpu0->cpu0_STLB PREFETCH REQUESTED:          0 ISSUED:          0 USEFUL:          0 USELESS:          0
cpu0->cpu0_STLB AVERAGE MISS LATENCY: 358 cycles
cpu0->cpu0_L2C TOTAL        ACCESS:     187748 HIT:      97777 MISS:      89971 MSHR_MERGE:          0
cpu0->cpu0_L2C LOAD         ACCESS:      55583 HIT:      21249 MISS:      34334 MSHR_MERGE:          0
cpu0->cpu0_L2C RFO          ACCESS:      19667 HIT:      16992 MISS:       2675 MSHR_MERGE:          0
cpu0->cpu0_L2C PREFETCH     ACCESS:          0 HIT:          0 MISS:          0 MSHR_MERGE:          0
cpu0->cpu0_L2C WRITE        ACCESS:      52288 HIT:      52043 MISS:        245 MSHR_MERGE:          0
cpu0->cpu0_L2C TRANSLATION  ACCESS:      60210 HIT:       7493 MISS:      52717 MSHR_MERGE:          0
cpu0->cpu0_L2C PREFETCH REQUESTED:          0 ISSUED:          0 USEFUL:          0 USELESS:          0
cpu0->cpu0_L2C AVERAGE MISS LATENCY: 89.36 cycles
cpu0->cpu0_L1I TOTAL        ACCESS:    8013149 HIT:    8011490 MISS:       1659 MSHR_MERGE:        461
cpu0->cpu0_L1I LOAD         ACCESS:    8013149 HIT:    8011490 MISS:       1659 MSHR_MERGE:        461
cpu0->cpu0_L1I RFO          ACCESS:          0 HIT:          0 MISS:          0 MSHR_MERGE:          0
cpu0->cpu0_L1I PREFETCH     ACCESS:          0 HIT:          0 MISS:          0 MSHR_MERGE:          0
cpu0->cpu0_L1I WRITE        ACCESS:          0 HIT:          0 MISS:          0 MSHR_MERGE:          0
cpu0->cpu0_L1I TRANSLATION  ACCESS:          0 HIT:          0 MISS:          0 MSHR_MERGE:          0
cpu0->cpu0_L1I PREFETCH REQUESTED:          0 ISSUED:          0 USEFUL:          0 USELESS:          0
cpu0->cpu0_L1I AVERAGE MISS LATENCY: 19.33 cycles
cpu0->cpu0_L1D TOTAL        ACCESS:   28404223 HIT:   28218416 MISS:     185807 MSHR_MERGE:      51545
cpu0->cpu0_L1D LOAD         ACCESS:   20342954 HIT:   20285739 MISS:      57215 MSHR_MERGE:       2830
cpu0->cpu0_L1D RFO          ACCESS:          0 HIT:          0 MISS:          0 MSHR_MERGE:          0
cpu0->cpu0_L1D PREFETCH     ACCESS:          0 HIT:          0 MISS:          0 MSHR_MERGE:          0
cpu0->cpu0_L1D WRITE        ACCESS:    7999525 HIT:    7931146 MISS:      68379 MSHR_MERGE:      48712
cpu0->cpu0_L1D TRANSLATION  ACCESS:      61744 HIT:       1531 MISS:      60213 MSHR_MERGE:          3
cpu0->cpu0_L1D PREFETCH REQUESTED:          0 ISSUED:          0 USEFUL:          0 USELESS:          0
cpu0->cpu0_L1D AVERAGE MISS LATENCY: 70.66 cycles
cpu0->cpu0_ITLB TOTAL        ACCESS:    6555901 HIT:    6555901 MISS:          0 MSHR_MERGE:          0
cpu0->cpu0_ITLB LOAD         ACCESS:    6555901 HIT:    6555901 MISS:          0 MSHR_MERGE:          0
cpu0->cpu0_ITLB RFO          ACCESS:          0 HIT:          0 MISS:          0 MSHR_MERGE:          0
cpu0->cpu0_ITLB PREFETCH     ACCESS:          0 HIT:          0 MISS:          0 MSHR_MERGE:          0
cpu0->cpu0_ITLB WRITE        ACCESS:          0 HIT:          0 MISS:          0 MSHR_MERGE:          0
cpu0->cpu0_ITLB TRANSLATION  ACCESS:          0 HIT:          0 MISS:          0 MSHR_MERGE:          0
cpu0->cpu0_ITLB PREFETCH REQUESTED:          0 ISSUED:          0 USEFUL:          0 USELESS:          0
cpu0->cpu0_ITLB AVERAGE MISS LATENCY: - cycles
cpu0->cpu0_DTLB TOTAL        ACCESS:   27669933 HIT:   27430144 MISS:     239789 MSHR_MERGE:      49062
cpu0->cpu0_DTLB LOAD         ACCESS:   27669933 HIT:   27430144 MISS:     239789 MSHR_MERGE:      49062
cpu0->cpu0_DTLB RFO          ACCESS:          0 HIT:          0 MISS:          0 MSHR_MERGE:          0
cpu0->cpu0_DTLB PREFETCH     ACCESS:          0 HIT:          0 MISS:          0 MSHR_MERGE:          0
cpu0->cpu0_DTLB WRITE        ACCESS:          0 HIT:          0 MISS:          0 MSHR_MERGE:          0
cpu0->cpu0_DTLB TRANSLATION  ACCESS:          0 HIT:          0 MISS:          0 MSHR_MERGE:          0
cpu0->cpu0_DTLB PREFETCH REQUESTED:          0 ISSUED:          0 USEFUL:          0 USELESS:          0
cpu0->cpu0_DTLB AVERAGE MISS LATENCY: 59.52 cycles
cpu0->LLC TOTAL        ACCESS:     123391 HIT:      49102 MISS:      74289 MSHR_MERGE:          0
cpu0->LLC LOAD         ACCESS:      34334 HIT:       1835 MISS:      32499 MSHR_MERGE:          0
cpu0->LLC RFO          ACCESS:       2675 HIT:        685 MISS:       1990 MSHR_MERGE:          0
cpu0->LLC PREFETCH     ACCESS:          0 HIT:          0 MISS:          0 MSHR_MERGE:          0
cpu0->LLC WRITE        ACCESS:      33665 HIT:      33392 MISS:        273 MSHR_MERGE:          0
cpu0->LLC TRANSLATION  ACCESS:      52717 HIT:      13190 MISS:      39527 MSHR_MERGE:          0
cpu0->LLC PREFETCH REQUESTED:          0 ISSUED:          0 USEFUL:          0 USELESS:          0
cpu0->LLC AVERAGE MISS LATENCY: 79.93 cycles

DRAM Statistics

Channel 0 RQ ROW_BUFFER_HIT:         50
  ROW_BUFFER_MISS:      73966
  AVG DBUS CONGESTED CYCLE: 7.958
Channel 0 WQ ROW_BUFFER_HIT:       3803
  ROW_BUFFER_MISS:      22357
  FULL:          0
Channel 0 REFRESHES ISSUED:       8015
[2025-09-15 16:35:00] END   suite=spec trace=458.sjeng-1088B (rc=0)
