[2025-09-15 18:45:25] START suite=spec trace=458.sjeng-767B
CMD: ./bin/champsim -w 20000000 -i 100000000 /home/ho/prefetch_aware_insertion_ptr/traces/spec2k17/458.sjeng-767B.champsimtrace.xz
[VMEM] WARNING: physical memory size is smaller than virtual memory size.

*** ChampSim Multicore Out-of-Order Simulator ***
Warmup Instructions: 20000000
Simulation Instructions: 100000000
Number of CPUs: 1
Page size: 4096

Off-chip DRAM Size: 16 GiB Channels: 1 Width: 64-bit Data Rate: 3205 MT/s
Heartbeat CPU 0 instructions: 10000000 cycles: 2809601 heartbeat IPC: 3.559 cumulative IPC: 3.559 (Simulation time: 00 hr 00 min 38 sec)
Heartbeat CPU 0 instructions: 20000002 cycles: 5530832 heartbeat IPC: 3.675 cumulative IPC: 3.616 (Simulation time: 00 hr 01 min 14 sec)
Warmup finished CPU 0 instructions: 20000002 cycles: 5530832 cumulative IPC: 3.616 (Simulation time: 00 hr 01 min 14 sec)
Warmup complete CPU 0 instructions: 20000002 cycles: 5530832 cumulative IPC: 3.616 (Simulation time: 00 hr 01 min 14 sec)
Heartbeat CPU 0 instructions: 30000004 cycles: 14952395 heartbeat IPC: 1.061 cumulative IPC: 1.061 (Simulation time: 00 hr 02 min 24 sec)
Heartbeat CPU 0 instructions: 40000005 cycles: 24316732 heartbeat IPC: 1.068 cumulative IPC: 1.065 (Simulation time: 00 hr 03 min 27 sec)
Heartbeat CPU 0 instructions: 50000005 cycles: 34081869 heartbeat IPC: 1.024 cumulative IPC: 1.051 (Simulation time: 00 hr 04 min 29 sec)
Heartbeat CPU 0 instructions: 60000008 cycles: 43551642 heartbeat IPC: 1.056 cumulative IPC: 1.052 (Simulation time: 00 hr 05 min 32 sec)
Heartbeat CPU 0 instructions: 70000008 cycles: 52997005 heartbeat IPC: 1.059 cumulative IPC: 1.053 (Simulation time: 00 hr 06 min 41 sec)
Heartbeat CPU 0 instructions: 80000009 cycles: 61871053 heartbeat IPC: 1.127 cumulative IPC: 1.065 (Simulation time: 00 hr 07 min 49 sec)
Heartbeat CPU 0 instructions: 90000009 cycles: 71044865 heartbeat IPC: 1.09 cumulative IPC: 1.068 (Simulation time: 00 hr 08 min 50 sec)
Heartbeat CPU 0 instructions: 100000011 cycles: 80292437 heartbeat IPC: 1.081 cumulative IPC: 1.07 (Simulation time: 00 hr 09 min 58 sec)
Heartbeat CPU 0 instructions: 110000011 cycles: 89542042 heartbeat IPC: 1.081 cumulative IPC: 1.071 (Simulation time: 00 hr 11 min 06 sec)
Simulation finished CPU 0 instructions: 100000001 cycles: 93333824 cumulative IPC: 1.071 (Simulation time: 00 hr 12 min 09 sec)
Simulation complete CPU 0 instructions: 100000001 cycles: 93333824 cumulative IPC: 1.071 (Simulation time: 00 hr 12 min 09 sec)

ChampSim completed all CPUs

=== Simulation ===
CPU 0 runs /home/ho/prefetch_aware_insertion_ptr/traces/spec2k17/458.sjeng-767B.champsimtrace.xz

Region of Interest Statistics

CPU 0 cumulative IPC: 1.071 instructions: 100000001 cycles: 93333824
CPU 0 Branch Prediction Accuracy: 87.51% MPKI: 27.64 Average ROB Occupancy at Mispredict: 20.65
Branch type MPKI
BRANCH_DIRECT_JUMP: 0.06422
BRANCH_INDIRECT: 0.9772
BRANCH_CONDITIONAL: 26.25
BRANCH_DIRECT_CALL: 9e-05
BRANCH_INDIRECT_CALL: 0.2903
BRANCH_RETURN: 0.06807


====Backend Stall Breakdown====
ROB_STALL: 105695
LQ_STALL: 0
SQ_STALL: 2326101


====ROB Stall Breakdown====

== Average ==
ADDR_TRANS: 376.61176
REPLAY_LOAD: 88.1236
NON_REPLAY_LOAD: 5.9118257

== Total ==
ADDR_TRANS: 32012
REPLAY_LOAD: 7843
NON_REPLAY_LOAD: 65840

== Counts ==
ADDR_TRANS: 85
REPLAY_LOAD: 89
NON_REPLAY_LOAD: 11137

cpu0->cpu0_STLB TOTAL        ACCESS:     184260 HIT:     151321 MISS:      32939 MSHR_MERGE:          0
cpu0->cpu0_STLB LOAD         ACCESS:     184260 HIT:     151321 MISS:      32939 MSHR_MERGE:          0
cpu0->cpu0_STLB RFO          ACCESS:          0 HIT:          0 MISS:          0 MSHR_MERGE:          0
cpu0->cpu0_STLB PREFETCH     ACCESS:          0 HIT:          0 MISS:          0 MSHR_MERGE:          0
cpu0->cpu0_STLB WRITE        ACCESS:          0 HIT:          0 MISS:          0 MSHR_MERGE:          0
cpu0->cpu0_STLB TRANSLATION  ACCESS:          0 HIT:          0 MISS:          0 MSHR_MERGE:          0
cpu0->cpu0_STLB PREFETCH REQUESTED:          0 ISSUED:          0 USEFUL:          0 USELESS:          0
cpu0->cpu0_STLB AVERAGE MISS LATENCY: 407.7 cycles
cpu0->cpu0_L2C TOTAL        ACCESS:     229814 HIT:     132778 MISS:      97036 MSHR_MERGE:          0
cpu0->cpu0_L2C LOAD         ACCESS:      71809 HIT:      33505 MISS:      38304 MSHR_MERGE:          0
cpu0->cpu0_L2C RFO          ACCESS:      24380 HIT:      20733 MISS:       3647 MSHR_MERGE:          0
cpu0->cpu0_L2C PREFETCH     ACCESS:          0 HIT:          0 MISS:          0 MSHR_MERGE:          0
cpu0->cpu0_L2C WRITE        ACCESS:      55741 HIT:      55528 MISS:        213 MSHR_MERGE:          0
cpu0->cpu0_L2C TRANSLATION  ACCESS:      77884 HIT:      23012 MISS:      54872 MSHR_MERGE:          0
cpu0->cpu0_L2C PREFETCH REQUESTED:          0 ISSUED:          0 USEFUL:          0 USELESS:          0
cpu0->cpu0_L2C AVERAGE MISS LATENCY: 88.11 cycles
cpu0->cpu0_L1I TOTAL        ACCESS:    7798157 HIT:    7788930 MISS:       9227 MSHR_MERGE:       3096
cpu0->cpu0_L1I LOAD         ACCESS:    7798157 HIT:    7788930 MISS:       9227 MSHR_MERGE:       3096
cpu0->cpu0_L1I RFO          ACCESS:          0 HIT:          0 MISS:          0 MSHR_MERGE:          0
cpu0->cpu0_L1I PREFETCH     ACCESS:          0 HIT:          0 MISS:          0 MSHR_MERGE:          0
cpu0->cpu0_L1I WRITE        ACCESS:          0 HIT:          0 MISS:          0 MSHR_MERGE:          0
cpu0->cpu0_L1I TRANSLATION  ACCESS:          0 HIT:          0 MISS:          0 MSHR_MERGE:          0
cpu0->cpu0_L1I PREFETCH REQUESTED:          0 ISSUED:          0 USEFUL:          0 USELESS:          0
cpu0->cpu0_L1I AVERAGE MISS LATENCY: 12.55 cycles
cpu0->cpu0_L1D TOTAL        ACCESS:   28724211 HIT:   28493126 MISS:     231085 MSHR_MERGE:      63143
cpu0->cpu0_L1D LOAD         ACCESS:   19935892 HIT:   19867020 MISS:      68872 MSHR_MERGE:       3194
cpu0->cpu0_L1D RFO          ACCESS:          0 HIT:          0 MISS:          0 MSHR_MERGE:          0
cpu0->cpu0_L1D PREFETCH     ACCESS:          0 HIT:          0 MISS:          0 MSHR_MERGE:          0
cpu0->cpu0_L1D WRITE        ACCESS:    8708227 HIT:    8623909 MISS:      84318 MSHR_MERGE:      59938
cpu0->cpu0_L1D TRANSLATION  ACCESS:      80092 HIT:       2197 MISS:      77895 MSHR_MERGE:         11
cpu0->cpu0_L1D PREFETCH REQUESTED:          0 ISSUED:          0 USEFUL:          0 USELESS:          0
cpu0->cpu0_L1D AVERAGE MISS LATENCY: 61.76 cycles
cpu0->cpu0_ITLB TOTAL        ACCESS:    6353599 HIT:    6353599 MISS:          0 MSHR_MERGE:          0
cpu0->cpu0_ITLB LOAD         ACCESS:    6353599 HIT:    6353599 MISS:          0 MSHR_MERGE:          0
cpu0->cpu0_ITLB RFO          ACCESS:          0 HIT:          0 MISS:          0 MSHR_MERGE:          0
cpu0->cpu0_ITLB PREFETCH     ACCESS:          0 HIT:          0 MISS:          0 MSHR_MERGE:          0
cpu0->cpu0_ITLB WRITE        ACCESS:          0 HIT:          0 MISS:          0 MSHR_MERGE:          0
cpu0->cpu0_ITLB TRANSLATION  ACCESS:          0 HIT:          0 MISS:          0 MSHR_MERGE:          0
cpu0->cpu0_ITLB PREFETCH REQUESTED:          0 ISSUED:          0 USEFUL:          0 USELESS:          0
cpu0->cpu0_ITLB AVERAGE MISS LATENCY: - cycles
cpu0->cpu0_DTLB TOTAL        ACCESS:   27890482 HIT:   27648200 MISS:     242282 MSHR_MERGE:      58022
cpu0->cpu0_DTLB LOAD         ACCESS:   27890482 HIT:   27648200 MISS:     242282 MSHR_MERGE:      58022
cpu0->cpu0_DTLB RFO          ACCESS:          0 HIT:          0 MISS:          0 MSHR_MERGE:          0
cpu0->cpu0_DTLB PREFETCH     ACCESS:          0 HIT:          0 MISS:          0 MSHR_MERGE:          0
cpu0->cpu0_DTLB WRITE        ACCESS:          0 HIT:          0 MISS:          0 MSHR_MERGE:          0
cpu0->cpu0_DTLB TRANSLATION  ACCESS:          0 HIT:          0 MISS:          0 MSHR_MERGE:          0
cpu0->cpu0_DTLB PREFETCH REQUESTED:          0 ISSUED:          0 USEFUL:          0 USELESS:          0
cpu0->cpu0_DTLB AVERAGE MISS LATENCY: 78.06 cycles
cpu0->LLC TOTAL        ACCESS:     128996 HIT:      50328 MISS:      78668 MSHR_MERGE:          0
cpu0->LLC LOAD         ACCESS:      38304 HIT:       2511 MISS:      35793 MSHR_MERGE:          0
cpu0->LLC RFO          ACCESS:       3647 HIT:       1009 MISS:       2638 MSHR_MERGE:          0
cpu0->LLC PREFETCH     ACCESS:          0 HIT:          0 MISS:          0 MSHR_MERGE:          0
cpu0->LLC WRITE        ACCESS:      32173 HIT:      31875 MISS:        298 MSHR_MERGE:          0
cpu0->LLC TRANSLATION  ACCESS:      54872 HIT:      14933 MISS:      39939 MSHR_MERGE:          0
cpu0->LLC PREFETCH REQUESTED:          0 ISSUED:          0 USEFUL:          0 USELESS:          0
cpu0->LLC AVERAGE MISS LATENCY: 80.95 cycles

DRAM Statistics

Channel 0 RQ ROW_BUFFER_HIT:         35
  ROW_BUFFER_MISS:      78335
  AVG DBUS CONGESTED CYCLE: 7.459
Channel 0 WQ ROW_BUFFER_HIT:       3308
  ROW_BUFFER_MISS:      22875
  FULL:          0
Channel 0 REFRESHES ISSUED:       7778
[2025-09-15 18:57:35] END   suite=spec trace=458.sjeng-767B (rc=0)
