[2025-09-15 15:33:55] START suite=spec trace=459.GemsFDTD-1211B
CMD: ./bin/champsim -w 20000000 -i 100000000 /home/ho/prefetch_aware_insertion_ptr/traces/spec2k17/459.GemsFDTD-1211B.champsimtrace.xz
[VMEM] WARNING: physical memory size is smaller than virtual memory size.

*** ChampSim Multicore Out-of-Order Simulator ***
Warmup Instructions: 20000000
Simulation Instructions: 100000000
Number of CPUs: 1
Page size: 4096

Off-chip DRAM Size: 16 GiB Channels: 1 Width: 64-bit Data Rate: 3205 MT/s
Heartbeat CPU 0 instructions: 10000002 cycles: 4349710 heartbeat IPC: 2.299 cumulative IPC: 2.299 (Simulation time: 00 hr 00 min 57 sec)
Heartbeat CPU 0 instructions: 20000002 cycles: 8667657 heartbeat IPC: 2.316 cumulative IPC: 2.307 (Simulation time: 00 hr 01 min 54 sec)
Warmup finished CPU 0 instructions: 20000002 cycles: 8667657 cumulative IPC: 2.307 (Simulation time: 00 hr 01 min 54 sec)
Warmup complete CPU 0 instructions: 20000002 cycles: 8667657 cumulative IPC: 2.307 (Simulation time: 00 hr 01 min 54 sec)
Heartbeat CPU 0 instructions: 30000002 cycles: 18948811 heartbeat IPC: 0.9727 cumulative IPC: 0.9727 (Simulation time: 00 hr 03 min 38 sec)
Heartbeat CPU 0 instructions: 40000003 cycles: 30955887 heartbeat IPC: 0.8328 cumulative IPC: 0.8973 (Simulation time: 00 hr 05 min 36 sec)
Heartbeat CPU 0 instructions: 50000006 cycles: 49565490 heartbeat IPC: 0.5374 cumulative IPC: 0.7335 (Simulation time: 00 hr 08 min 25 sec)
Heartbeat CPU 0 instructions: 60000010 cycles: 59322024 heartbeat IPC: 1.025 cumulative IPC: 0.7897 (Simulation time: 00 hr 10 min 03 sec)
Heartbeat CPU 0 instructions: 70000013 cycles: 69138285 heartbeat IPC: 1.019 cumulative IPC: 0.8268 (Simulation time: 00 hr 11 min 43 sec)
Heartbeat CPU 0 instructions: 80000016 cycles: 78923756 heartbeat IPC: 1.022 cumulative IPC: 0.854 (Simulation time: 00 hr 13 min 25 sec)
Heartbeat CPU 0 instructions: 90000020 cycles: 88683737 heartbeat IPC: 1.025 cumulative IPC: 0.8748 (Simulation time: 00 hr 15 min 07 sec)
Heartbeat CPU 0 instructions: 100000022 cycles: 98510647 heartbeat IPC: 1.018 cumulative IPC: 0.8904 (Simulation time: 00 hr 16 min 49 sec)
Heartbeat CPU 0 instructions: 110000026 cycles: 108264136 heartbeat IPC: 1.025 cumulative IPC: 0.9036 (Simulation time: 00 hr 18 min 28 sec)
Simulation finished CPU 0 instructions: 100000003 cycles: 109402798 cumulative IPC: 0.9141 (Simulation time: 00 hr 20 min 04 sec)
Simulation complete CPU 0 instructions: 100000003 cycles: 109402798 cumulative IPC: 0.9141 (Simulation time: 00 hr 20 min 04 sec)

ChampSim completed all CPUs

=== Simulation ===
CPU 0 runs /home/ho/prefetch_aware_insertion_ptr/traces/spec2k17/459.GemsFDTD-1211B.champsimtrace.xz

Region of Interest Statistics

CPU 0 cumulative IPC: 0.9141 instructions: 100000003 cycles: 109402798
CPU 0 Branch Prediction Accuracy: 93.45% MPKI: 0.3725 Average ROB Occupancy at Mispredict: 309.5
Branch type MPKI
BRANCH_DIRECT_JUMP: 0
BRANCH_INDIRECT: 0
BRANCH_CONDITIONAL: 0.3725
BRANCH_DIRECT_CALL: 0
BRANCH_INDIRECT_CALL: 0
BRANCH_RETURN: 0


====Backend Stall Breakdown====
ROB_STALL: 37228533
LQ_STALL: 29443916
SQ_STALL: 0


====ROB Stall Breakdown====

== Average ==
ADDR_TRANS: 247.88632
REPLAY_LOAD: 101.98761
NON_REPLAY_LOAD: 13.98458

== Total ==
ADDR_TRANS: 9731769
REPLAY_LOAD: 4863279
NON_REPLAY_LOAD: 22633485

== Counts ==
ADDR_TRANS: 39259
REPLAY_LOAD: 47685
NON_REPLAY_LOAD: 1618460

cpu0->cpu0_STLB TOTAL        ACCESS:     695400 HIT:     528372 MISS:     167028 MSHR_MERGE:          0
cpu0->cpu0_STLB LOAD         ACCESS:     695400 HIT:     528372 MISS:     167028 MSHR_MERGE:          0
cpu0->cpu0_STLB RFO          ACCESS:          0 HIT:          0 MISS:          0 MSHR_MERGE:          0
cpu0->cpu0_STLB PREFETCH     ACCESS:          0 HIT:          0 MISS:          0 MSHR_MERGE:          0
cpu0->cpu0_STLB WRITE        ACCESS:          0 HIT:          0 MISS:          0 MSHR_MERGE:          0
cpu0->cpu0_STLB TRANSLATION  ACCESS:          0 HIT:          0 MISS:          0 MSHR_MERGE:          0
cpu0->cpu0_STLB PREFETCH REQUESTED:          0 ISSUED:          0 USEFUL:          0 USELESS:          0
cpu0->cpu0_STLB AVERAGE MISS LATENCY: 483.8 cycles
cpu0->cpu0_L2C TOTAL        ACCESS:    1819038 HIT:     709004 MISS:    1110034 MSHR_MERGE:          0
cpu0->cpu0_L2C LOAD         ACCESS:    1118194 HIT:     197401 MISS:     920793 MSHR_MERGE:          0
cpu0->cpu0_L2C RFO          ACCESS:       1490 HIT:       1483 MISS:          7 MSHR_MERGE:          0
cpu0->cpu0_L2C PREFETCH     ACCESS:          0 HIT:          0 MISS:          0 MSHR_MERGE:          0
cpu0->cpu0_L2C WRITE        ACCESS:     507700 HIT:     507693 MISS:          7 MSHR_MERGE:          0
cpu0->cpu0_L2C TRANSLATION  ACCESS:     191654 HIT:       2427 MISS:     189227 MSHR_MERGE:          0
cpu0->cpu0_L2C PREFETCH REQUESTED:          0 ISSUED:          0 USEFUL:          0 USELESS:          0
cpu0->cpu0_L2C AVERAGE MISS LATENCY: 128 cycles
cpu0->cpu0_L1I TOTAL        ACCESS:   26164698 HIT:   26164615 MISS:         83 MSHR_MERGE:         29
cpu0->cpu0_L1I LOAD         ACCESS:   26164698 HIT:   26164615 MISS:         83 MSHR_MERGE:         29
cpu0->cpu0_L1I RFO          ACCESS:          0 HIT:          0 MISS:          0 MSHR_MERGE:          0
cpu0->cpu0_L1I PREFETCH     ACCESS:          0 HIT:          0 MISS:          0 MSHR_MERGE:          0
cpu0->cpu0_L1I WRITE        ACCESS:          0 HIT:          0 MISS:          0 MSHR_MERGE:          0
cpu0->cpu0_L1I TRANSLATION  ACCESS:          0 HIT:          0 MISS:          0 MSHR_MERGE:          0
cpu0->cpu0_L1I PREFETCH REQUESTED:          0 ISSUED:          0 USEFUL:          0 USELESS:          0
cpu0->cpu0_L1I AVERAGE MISS LATENCY: 153 cycles
cpu0->cpu0_L1D TOTAL        ACCESS:   51039443 HIT:   49676895 MISS:    1362548 MSHR_MERGE:      51263
cpu0->cpu0_L1D LOAD         ACCESS:   43157090 HIT:   41996799 MISS:    1160291 MSHR_MERGE:      42151
cpu0->cpu0_L1D RFO          ACCESS:          0 HIT:          0 MISS:          0 MSHR_MERGE:          0
cpu0->cpu0_L1D PREFETCH     ACCESS:          0 HIT:          0 MISS:          0 MSHR_MERGE:          0
cpu0->cpu0_L1D WRITE        ACCESS:    7547927 HIT:    7538356 MISS:       9571 MSHR_MERGE:       8080
cpu0->cpu0_L1D TRANSLATION  ACCESS:     334426 HIT:     141740 MISS:     192686 MSHR_MERGE:       1032
cpu0->cpu0_L1D PREFETCH REQUESTED:          0 ISSUED:          0 USEFUL:          0 USELESS:          0
cpu0->cpu0_L1D AVERAGE MISS LATENCY: 120.2 cycles
cpu0->cpu0_ITLB TOTAL        ACCESS:   22241543 HIT:   22241537 MISS:          6 MSHR_MERGE:          5
cpu0->cpu0_ITLB LOAD         ACCESS:   22241543 HIT:   22241537 MISS:          6 MSHR_MERGE:          5
cpu0->cpu0_ITLB RFO          ACCESS:          0 HIT:          0 MISS:          0 MSHR_MERGE:          0
cpu0->cpu0_ITLB PREFETCH     ACCESS:          0 HIT:          0 MISS:          0 MSHR_MERGE:          0
cpu0->cpu0_ITLB WRITE        ACCESS:          0 HIT:          0 MISS:          0 MSHR_MERGE:          0
cpu0->cpu0_ITLB TRANSLATION  ACCESS:          0 HIT:          0 MISS:          0 MSHR_MERGE:          0
cpu0->cpu0_ITLB PREFETCH REQUESTED:          0 ISSUED:          0 USEFUL:          0 USELESS:          0
cpu0->cpu0_ITLB AVERAGE MISS LATENCY: 1090 cycles
cpu0->cpu0_DTLB TOTAL        ACCESS:   49102624 HIT:   48183236 MISS:     919388 MSHR_MERGE:     223989
cpu0->cpu0_DTLB LOAD         ACCESS:   49102624 HIT:   48183236 MISS:     919388 MSHR_MERGE:     223989
cpu0->cpu0_DTLB RFO          ACCESS:          0 HIT:          0 MISS:          0 MSHR_MERGE:          0
cpu0->cpu0_DTLB PREFETCH     ACCESS:          0 HIT:          0 MISS:          0 MSHR_MERGE:          0
cpu0->cpu0_DTLB WRITE        ACCESS:          0 HIT:          0 MISS:          0 MSHR_MERGE:          0
cpu0->cpu0_DTLB TRANSLATION  ACCESS:          0 HIT:          0 MISS:          0 MSHR_MERGE:          0
cpu0->cpu0_DTLB PREFETCH REQUESTED:          0 ISSUED:          0 USEFUL:          0 USELESS:          0
cpu0->cpu0_DTLB AVERAGE MISS LATENCY: 121.4 cycles
cpu0->LLC TOTAL        ACCESS:    1615954 HIT:     557502 MISS:    1058452 MSHR_MERGE:          0
cpu0->LLC LOAD         ACCESS:     920793 HIT:      51430 MISS:     869363 MSHR_MERGE:          0
cpu0->LLC RFO          ACCESS:          7 HIT:          0 MISS:          7 MSHR_MERGE:          0
cpu0->LLC PREFETCH     ACCESS:          0 HIT:          0 MISS:          0 MSHR_MERGE:          0
cpu0->LLC WRITE        ACCESS:     505927 HIT:     505909 MISS:         18 MSHR_MERGE:          0
cpu0->LLC TRANSLATION  ACCESS:     189227 HIT:        163 MISS:     189064 MSHR_MERGE:          0
cpu0->LLC PREFETCH REQUESTED:          0 ISSUED:          0 USEFUL:          0 USELESS:          0
cpu0->LLC AVERAGE MISS LATENCY: 105.3 cycles

DRAM Statistics

Channel 0 RQ ROW_BUFFER_HIT:        244
  ROW_BUFFER_MISS:    1058190
  AVG DBUS CONGESTED CYCLE: 5.69
Channel 0 WQ ROW_BUFFER_HIT:      72771
  ROW_BUFFER_MISS:     433307
  FULL:          0
Channel 0 REFRESHES ISSUED:       9117
[2025-09-15 15:53:59] END   suite=spec trace=459.GemsFDTD-1211B (rc=0)
