[2025-09-15 19:07:44] START suite=spec trace=459.GemsFDTD-1418B
CMD: ./bin/champsim -w 20000000 -i 100000000 /home/ho/prefetch_aware_insertion_ptr/traces/spec2k17/459.GemsFDTD-1418B.champsimtrace.xz
[VMEM] WARNING: physical memory size is smaller than virtual memory size.

*** ChampSim Multicore Out-of-Order Simulator ***
Warmup Instructions: 20000000
Simulation Instructions: 100000000
Number of CPUs: 1
Page size: 4096

Off-chip DRAM Size: 16 GiB Channels: 1 Width: 64-bit Data Rate: 3205 MT/s
Heartbeat CPU 0 instructions: 10000004 cycles: 3153244 heartbeat IPC: 3.171 cumulative IPC: 3.171 (Simulation time: 00 hr 00 min 44 sec)
Warmup finished CPU 0 instructions: 20000000 cycles: 6299678 cumulative IPC: 3.175 (Simulation time: 00 hr 01 min 30 sec)
Warmup complete CPU 0 instructions: 20000000 cycles: 6299678 cumulative IPC: 3.175 (Simulation time: 00 hr 01 min 30 sec)
Heartbeat CPU 0 instructions: 20000005 cycles: 6299679 heartbeat IPC: 3.178 cumulative IPC: 5 (Simulation time: 00 hr 01 min 30 sec)
Heartbeat CPU 0 instructions: 30000007 cycles: 13840002 heartbeat IPC: 1.326 cumulative IPC: 1.326 (Simulation time: 00 hr 02 min 47 sec)
Heartbeat CPU 0 instructions: 40000009 cycles: 21836616 heartbeat IPC: 1.251 cumulative IPC: 1.287 (Simulation time: 00 hr 03 min 36 sec)
Heartbeat CPU 0 instructions: 50000013 cycles: 29988124 heartbeat IPC: 1.227 cumulative IPC: 1.266 (Simulation time: 00 hr 04 min 57 sec)
Heartbeat CPU 0 instructions: 60000015 cycles: 38111601 heartbeat IPC: 1.231 cumulative IPC: 1.257 (Simulation time: 00 hr 05 min 56 sec)
Heartbeat CPU 0 instructions: 70000018 cycles: 46210983 heartbeat IPC: 1.235 cumulative IPC: 1.253 (Simulation time: 00 hr 06 min 45 sec)
Heartbeat CPU 0 instructions: 80000022 cycles: 54291249 heartbeat IPC: 1.238 cumulative IPC: 1.25 (Simulation time: 00 hr 07 min 34 sec)
Heartbeat CPU 0 instructions: 90000022 cycles: 62387879 heartbeat IPC: 1.235 cumulative IPC: 1.248 (Simulation time: 00 hr 08 min 23 sec)
Heartbeat CPU 0 instructions: 100000026 cycles: 70518312 heartbeat IPC: 1.23 cumulative IPC: 1.246 (Simulation time: 00 hr 09 min 12 sec)
Heartbeat CPU 0 instructions: 110000030 cycles: 78642407 heartbeat IPC: 1.231 cumulative IPC: 1.244 (Simulation time: 00 hr 10 min 00 sec)
Simulation finished CPU 0 instructions: 100000000 cycles: 80463795 cumulative IPC: 1.243 (Simulation time: 00 hr 10 min 48 sec)
Simulation complete CPU 0 instructions: 100000000 cycles: 80463795 cumulative IPC: 1.243 (Simulation time: 00 hr 10 min 48 sec)

ChampSim completed all CPUs

=== Simulation ===
CPU 0 runs /home/ho/prefetch_aware_insertion_ptr/traces/spec2k17/459.GemsFDTD-1418B.champsimtrace.xz

Region of Interest Statistics

CPU 0 cumulative IPC: 1.243 instructions: 100000000 cycles: 80463795
CPU 0 Branch Prediction Accuracy: 99.52% MPKI: 0.02387 Average ROB Occupancy at Mispredict: 293.2
Branch type MPKI
BRANCH_DIRECT_JUMP: 2e-05
BRANCH_INDIRECT: 0
BRANCH_CONDITIONAL: 0.02385
BRANCH_DIRECT_CALL: 0
BRANCH_INDIRECT_CALL: 0
BRANCH_RETURN: 0


====Backend Stall Breakdown====
ROB_STALL: 16767601
LQ_STALL: 21641703
SQ_STALL: 0


====ROB Stall Breakdown====

== Average ==
ADDR_TRANS: 432.57224
REPLAY_LOAD: 98.51696
NON_REPLAY_LOAD: 6.64115

== Total ==
ADDR_TRANS: 1386394
REPLAY_LOAD: 365892
NON_REPLAY_LOAD: 15015315

== Counts ==
ADDR_TRANS: 3205
REPLAY_LOAD: 3714
NON_REPLAY_LOAD: 2260951

cpu0->cpu0_STLB TOTAL        ACCESS:     654554 HIT:     644774 MISS:       9780 MSHR_MERGE:          0
cpu0->cpu0_STLB LOAD         ACCESS:     654554 HIT:     644774 MISS:       9780 MSHR_MERGE:          0
cpu0->cpu0_STLB RFO          ACCESS:          0 HIT:          0 MISS:          0 MSHR_MERGE:          0
cpu0->cpu0_STLB PREFETCH     ACCESS:          0 HIT:          0 MISS:          0 MSHR_MERGE:          0
cpu0->cpu0_STLB WRITE        ACCESS:          0 HIT:          0 MISS:          0 MSHR_MERGE:          0
cpu0->cpu0_STLB TRANSLATION  ACCESS:          0 HIT:          0 MISS:          0 MSHR_MERGE:          0
cpu0->cpu0_STLB PREFETCH REQUESTED:          0 ISSUED:          0 USEFUL:          0 USELESS:          0
cpu0->cpu0_STLB AVERAGE MISS LATENCY: 592.2 cycles
cpu0->cpu0_L2C TOTAL        ACCESS:    1110820 HIT:     421266 MISS:     689554 MSHR_MERGE:          0
cpu0->cpu0_L2C LOAD         ACCESS:     714844 HIT:      36901 MISS:     677943 MSHR_MERGE:          0
cpu0->cpu0_L2C RFO          ACCESS:       1778 HIT:       1773 MISS:          5 MSHR_MERGE:          0
cpu0->cpu0_L2C PREFETCH     ACCESS:          0 HIT:          0 MISS:          0 MSHR_MERGE:          0
cpu0->cpu0_L2C WRITE        ACCESS:     375686 HIT:     375585 MISS:        101 MSHR_MERGE:          0
cpu0->cpu0_L2C TRANSLATION  ACCESS:      18512 HIT:       7007 MISS:      11505 MSHR_MERGE:          0
cpu0->cpu0_L2C PREFETCH REQUESTED:          0 ISSUED:          0 USEFUL:          0 USELESS:          0
cpu0->cpu0_L2C AVERAGE MISS LATENCY: 133.5 cycles
cpu0->cpu0_L1I TOTAL        ACCESS:   28497165 HIT:   28497084 MISS:         81 MSHR_MERGE:         25
cpu0->cpu0_L1I LOAD         ACCESS:   28497165 HIT:   28497084 MISS:         81 MSHR_MERGE:         25
cpu0->cpu0_L1I RFO          ACCESS:          0 HIT:          0 MISS:          0 MSHR_MERGE:          0
cpu0->cpu0_L1I PREFETCH     ACCESS:          0 HIT:          0 MISS:          0 MSHR_MERGE:          0
cpu0->cpu0_L1I WRITE        ACCESS:          0 HIT:          0 MISS:          0 MSHR_MERGE:          0
cpu0->cpu0_L1I TRANSLATION  ACCESS:          0 HIT:          0 MISS:          0 MSHR_MERGE:          0
cpu0->cpu0_L1I PREFETCH REQUESTED:          0 ISSUED:          0 USEFUL:          0 USELESS:          0
cpu0->cpu0_L1I AVERAGE MISS LATENCY: 167.1 cycles
cpu0->cpu0_L1D TOTAL        ACCESS:   52376557 HIT:   51456474 MISS:     920083 MSHR_MERGE:     185004
cpu0->cpu0_L1D LOAD         ACCESS:   46450476 HIT:   45553839 MISS:     896637 MSHR_MERGE:     181849
cpu0->cpu0_L1D RFO          ACCESS:          0 HIT:          0 MISS:          0 MSHR_MERGE:          0
cpu0->cpu0_L1D PREFETCH     ACCESS:          0 HIT:          0 MISS:          0 MSHR_MERGE:          0
cpu0->cpu0_L1D WRITE        ACCESS:    5906465 HIT:    5901547 MISS:       4918 MSHR_MERGE:       3139
cpu0->cpu0_L1D TRANSLATION  ACCESS:      19616 HIT:       1088 MISS:      18528 MSHR_MERGE:         16
cpu0->cpu0_L1D PREFETCH REQUESTED:          0 ISSUED:          0 USEFUL:          0 USELESS:          0
cpu0->cpu0_L1D AVERAGE MISS LATENCY: 138.1 cycles
cpu0->cpu0_ITLB TOTAL        ACCESS:   25916965 HIT:   25916951 MISS:         14 MSHR_MERGE:         12
cpu0->cpu0_ITLB LOAD         ACCESS:   25916965 HIT:   25916951 MISS:         14 MSHR_MERGE:         12
cpu0->cpu0_ITLB RFO          ACCESS:          0 HIT:          0 MISS:          0 MSHR_MERGE:          0
cpu0->cpu0_ITLB PREFETCH     ACCESS:          0 HIT:          0 MISS:          0 MSHR_MERGE:          0
cpu0->cpu0_ITLB WRITE        ACCESS:          0 HIT:          0 MISS:          0 MSHR_MERGE:          0
cpu0->cpu0_ITLB TRANSLATION  ACCESS:          0 HIT:          0 MISS:          0 MSHR_MERGE:          0
cpu0->cpu0_ITLB PREFETCH REQUESTED:          0 ISSUED:          0 USEFUL:          0 USELESS:          0
cpu0->cpu0_ITLB AVERAGE MISS LATENCY: 719 cycles
cpu0->cpu0_DTLB TOTAL        ACCESS:   51384323 HIT:   50523474 MISS:     860849 MSHR_MERGE:     206297
cpu0->cpu0_DTLB LOAD         ACCESS:   51384323 HIT:   50523474 MISS:     860849 MSHR_MERGE:     206297
cpu0->cpu0_DTLB RFO          ACCESS:          0 HIT:          0 MISS:          0 MSHR_MERGE:          0
cpu0->cpu0_DTLB PREFETCH     ACCESS:          0 HIT:          0 MISS:          0 MSHR_MERGE:          0
cpu0->cpu0_DTLB WRITE        ACCESS:          0 HIT:          0 MISS:          0 MSHR_MERGE:          0
cpu0->cpu0_DTLB TRANSLATION  ACCESS:          0 HIT:          0 MISS:          0 MSHR_MERGE:          0
cpu0->cpu0_DTLB PREFETCH REQUESTED:          0 ISSUED:          0 USEFUL:          0 USELESS:          0
cpu0->cpu0_DTLB AVERAGE MISS LATENCY: 13.86 cycles
cpu0->LLC TOTAL        ACCESS:    1063107 HIT:     375669 MISS:     687438 MSHR_MERGE:          0
cpu0->LLC LOAD         ACCESS:     677943 HIT:       2088 MISS:     675855 MSHR_MERGE:          0
cpu0->LLC RFO          ACCESS:          5 HIT:          0 MISS:          5 MSHR_MERGE:          0
cpu0->LLC PREFETCH     ACCESS:          0 HIT:          0 MISS:          0 MSHR_MERGE:          0
cpu0->LLC WRITE        ACCESS:     373654 HIT:     373579 MISS:         75 MSHR_MERGE:          0
cpu0->LLC TRANSLATION  ACCESS:      11505 HIT:          2 MISS:      11503 MSHR_MERGE:          0
cpu0->LLC PREFETCH REQUESTED:          0 ISSUED:          0 USEFUL:          0 USELESS:          0
cpu0->LLC AVERAGE MISS LATENCY: 103.3 cycles

DRAM Statistics

Channel 0 RQ ROW_BUFFER_HIT:        227
  ROW_BUFFER_MISS:     687135
  AVG DBUS CONGESTED CYCLE: 4.283
Channel 0 WQ ROW_BUFFER_HIT:      18107
  ROW_BUFFER_MISS:     358457
  FULL:          0
Channel 0 REFRESHES ISSUED:       6706
[2025-09-15 19:18:33] END   suite=spec trace=459.GemsFDTD-1418B (rc=0)
