[2025-09-15 15:56:26] START suite=spec trace=459.GemsFDTD-1320B
CMD: ./bin/champsim -w 20000000 -i 100000000 /home/ho/prefetch_aware_insertion_ptr/traces/spec2k17/459.GemsFDTD-1320B.champsimtrace.xz
[VMEM] WARNING: physical memory size is smaller than virtual memory size.

*** ChampSim Multicore Out-of-Order Simulator ***
Warmup Instructions: 20000000
Simulation Instructions: 100000000
Number of CPUs: 1
Page size: 4096

Off-chip DRAM Size: 16 GiB Channels: 1 Width: 64-bit Data Rate: 3205 MT/s
Heartbeat CPU 0 instructions: 10000000 cycles: 3000785 heartbeat IPC: 3.332 cumulative IPC: 3.332 (Simulation time: 00 hr 00 min 45 sec)
Heartbeat CPU 0 instructions: 20000003 cycles: 5902104 heartbeat IPC: 3.447 cumulative IPC: 3.389 (Simulation time: 00 hr 01 min 27 sec)
Warmup finished CPU 0 instructions: 20000003 cycles: 5902104 cumulative IPC: 3.389 (Simulation time: 00 hr 01 min 27 sec)
Warmup complete CPU 0 instructions: 20000003 cycles: 5902104 cumulative IPC: 3.389 (Simulation time: 00 hr 01 min 27 sec)
Heartbeat CPU 0 instructions: 30000007 cycles: 12475165 heartbeat IPC: 1.521 cumulative IPC: 1.521 (Simulation time: 00 hr 02 min 38 sec)
Heartbeat CPU 0 instructions: 40000011 cycles: 18820593 heartbeat IPC: 1.576 cumulative IPC: 1.548 (Simulation time: 00 hr 03 min 52 sec)
Heartbeat CPU 0 instructions: 50000012 cycles: 36224234 heartbeat IPC: 0.5746 cumulative IPC: 0.9894 (Simulation time: 00 hr 06 min 21 sec)
Heartbeat CPU 0 instructions: 60000016 cycles: 58213540 heartbeat IPC: 0.4548 cumulative IPC: 0.7647 (Simulation time: 00 hr 09 min 15 sec)
Heartbeat CPU 0 instructions: 70000016 cycles: 75926475 heartbeat IPC: 0.5646 cumulative IPC: 0.714 (Simulation time: 00 hr 11 min 37 sec)
Heartbeat CPU 0 instructions: 80000017 cycles: 83022360 heartbeat IPC: 1.409 cumulative IPC: 0.778 (Simulation time: 00 hr 12 min 55 sec)
Heartbeat CPU 0 instructions: 90000021 cycles: 90056534 heartbeat IPC: 1.422 cumulative IPC: 0.8318 (Simulation time: 00 hr 14 min 09 sec)
Heartbeat CPU 0 instructions: 100000025 cycles: 96745536 heartbeat IPC: 1.495 cumulative IPC: 0.8806 (Simulation time: 00 hr 15 min 21 sec)
Heartbeat CPU 0 instructions: 110000025 cycles: 103413922 heartbeat IPC: 1.5 cumulative IPC: 0.923 (Simulation time: 00 hr 16 min 38 sec)
Simulation finished CPU 0 instructions: 100000003 cycles: 104135525 cumulative IPC: 0.9603 (Simulation time: 00 hr 17 min 49 sec)
Simulation complete CPU 0 instructions: 100000003 cycles: 104135525 cumulative IPC: 0.9603 (Simulation time: 00 hr 17 min 49 sec)

ChampSim completed all CPUs

=== Simulation ===
CPU 0 runs /home/ho/prefetch_aware_insertion_ptr/traces/spec2k17/459.GemsFDTD-1320B.champsimtrace.xz

Region of Interest Statistics

CPU 0 cumulative IPC: 0.9603 instructions: 100000003 cycles: 104135525
CPU 0 Branch Prediction Accuracy: 99.45% MPKI: 0.01354 Average ROB Occupancy at Mispredict: 340.1
Branch type MPKI
BRANCH_DIRECT_JUMP: 3e-05
BRANCH_INDIRECT: 0
BRANCH_CONDITIONAL: 0.01351
BRANCH_DIRECT_CALL: 0
BRANCH_INDIRECT_CALL: 0
BRANCH_RETURN: 0


====Backend Stall Breakdown====
ROB_STALL: 71520137
LQ_STALL: 3651813
SQ_STALL: 0


====ROB Stall Breakdown====

== Average ==
ADDR_TRANS: 434.37396
REPLAY_LOAD: 90.95468
NON_REPLAY_LOAD: 12.911317

== Total ==
ADDR_TRANS: 25900415
REPLAY_LOAD: 6236126
NON_REPLAY_LOAD: 39383596

== Counts ==
ADDR_TRANS: 59627
REPLAY_LOAD: 68563
NON_REPLAY_LOAD: 3050316

cpu0->cpu0_STLB TOTAL        ACCESS:    1237426 HIT:    1155590 MISS:      81836 MSHR_MERGE:          0
cpu0->cpu0_STLB LOAD         ACCESS:    1237426 HIT:    1155590 MISS:      81836 MSHR_MERGE:          0
cpu0->cpu0_STLB RFO          ACCESS:          0 HIT:          0 MISS:          0 MSHR_MERGE:          0
cpu0->cpu0_STLB PREFETCH     ACCESS:          0 HIT:          0 MISS:          0 MSHR_MERGE:          0
cpu0->cpu0_STLB WRITE        ACCESS:          0 HIT:          0 MISS:          0 MSHR_MERGE:          0
cpu0->cpu0_STLB TRANSLATION  ACCESS:          0 HIT:          0 MISS:          0 MSHR_MERGE:          0
cpu0->cpu0_STLB PREFETCH REQUESTED:          0 ISSUED:          0 USEFUL:          0 USELESS:          0
cpu0->cpu0_STLB AVERAGE MISS LATENCY: 528.6 cycles
cpu0->cpu0_L2C TOTAL        ACCESS:    4049929 HIT:    3374477 MISS:     675452 MSHR_MERGE:          0
cpu0->cpu0_L2C LOAD         ACCESS:    3390549 HIT:    2829854 MISS:     560695 MSHR_MERGE:          0
cpu0->cpu0_L2C RFO          ACCESS:         22 HIT:         19 MISS:          3 MSHR_MERGE:          0
cpu0->cpu0_L2C PREFETCH     ACCESS:          0 HIT:          0 MISS:          0 MSHR_MERGE:          0
cpu0->cpu0_L2C WRITE        ACCESS:     482546 HIT:     482541 MISS:          5 MSHR_MERGE:          0
cpu0->cpu0_L2C TRANSLATION  ACCESS:     176812 HIT:      62063 MISS:     114749 MSHR_MERGE:          0
cpu0->cpu0_L2C PREFETCH REQUESTED:          0 ISSUED:          0 USEFUL:          0 USELESS:          0
cpu0->cpu0_L2C AVERAGE MISS LATENCY: 120 cycles
cpu0->cpu0_L1I TOTAL        ACCESS:   21105007 HIT:   21104832 MISS:        175 MSHR_MERGE:         66
cpu0->cpu0_L1I LOAD         ACCESS:   21105007 HIT:   21104832 MISS:        175 MSHR_MERGE:         66
cpu0->cpu0_L1I RFO          ACCESS:          0 HIT:          0 MISS:          0 MSHR_MERGE:          0
cpu0->cpu0_L1I PREFETCH     ACCESS:          0 HIT:          0 MISS:          0 MSHR_MERGE:          0
cpu0->cpu0_L1I WRITE        ACCESS:          0 HIT:          0 MISS:          0 MSHR_MERGE:          0
cpu0->cpu0_L1I TRANSLATION  ACCESS:          0 HIT:          0 MISS:          0 MSHR_MERGE:          0
cpu0->cpu0_L1I PREFETCH REQUESTED:          0 ISSUED:          0 USEFUL:          0 USELESS:          0
cpu0->cpu0_L1I AVERAGE MISS LATENCY: 144 cycles
cpu0->cpu0_L1D TOTAL        ACCESS:   45863381 HIT:   41843471 MISS:    4019910 MSHR_MERGE:     452636
cpu0->cpu0_L1D LOAD         ACCESS:   42319644 HIT:   38476571 MISS:    3843073 MSHR_MERGE:     452633
cpu0->cpu0_L1D RFO          ACCESS:          0 HIT:          0 MISS:          0 MSHR_MERGE:          0
cpu0->cpu0_L1D PREFETCH     ACCESS:          0 HIT:          0 MISS:          0 MSHR_MERGE:          0
cpu0->cpu0_L1D WRITE        ACCESS:    3352952 HIT:    3352929 MISS:         23 MSHR_MERGE:          1
cpu0->cpu0_L1D TRANSLATION  ACCESS:     190785 HIT:      13971 MISS:     176814 MSHR_MERGE:          2
cpu0->cpu0_L1D PREFETCH REQUESTED:          0 ISSUED:          0 USEFUL:          0 USELESS:          0
cpu0->cpu0_L1D AVERAGE MISS LATENCY: 34.75 cycles
cpu0->cpu0_ITLB TOTAL        ACCESS:   17737525 HIT:   17737511 MISS:         14 MSHR_MERGE:         12
cpu0->cpu0_ITLB LOAD         ACCESS:   17737525 HIT:   17737511 MISS:         14 MSHR_MERGE:         12
cpu0->cpu0_ITLB RFO          ACCESS:          0 HIT:          0 MISS:          0 MSHR_MERGE:          0
cpu0->cpu0_ITLB PREFETCH     ACCESS:          0 HIT:          0 MISS:          0 MSHR_MERGE:          0
cpu0->cpu0_ITLB WRITE        ACCESS:          0 HIT:          0 MISS:          0 MSHR_MERGE:          0
cpu0->cpu0_ITLB TRANSLATION  ACCESS:          0 HIT:          0 MISS:          0 MSHR_MERGE:          0
cpu0->cpu0_ITLB PREFETCH REQUESTED:          0 ISSUED:          0 USEFUL:          0 USELESS:          0
cpu0->cpu0_ITLB AVERAGE MISS LATENCY: 744.5 cycles
cpu0->cpu0_DTLB TOTAL        ACCESS:   44488345 HIT:   43203151 MISS:    1285194 MSHR_MERGE:      47770
cpu0->cpu0_DTLB LOAD         ACCESS:   44488345 HIT:   43203151 MISS:    1285194 MSHR_MERGE:      47770
cpu0->cpu0_DTLB RFO          ACCESS:          0 HIT:          0 MISS:          0 MSHR_MERGE:          0
cpu0->cpu0_DTLB PREFETCH     ACCESS:          0 HIT:          0 MISS:          0 MSHR_MERGE:          0
cpu0->cpu0_DTLB WRITE        ACCESS:          0 HIT:          0 MISS:          0 MSHR_MERGE:          0
cpu0->cpu0_DTLB TRANSLATION  ACCESS:          0 HIT:          0 MISS:          0 MSHR_MERGE:          0
cpu0->cpu0_DTLB PREFETCH REQUESTED:          0 ISSUED:          0 USEFUL:          0 USELESS:          0
cpu0->cpu0_DTLB AVERAGE MISS LATENCY: 40.02 cycles
cpu0->LLC TOTAL        ACCESS:     680413 HIT:      22859 MISS:     657554 MSHR_MERGE:          0
cpu0->LLC LOAD         ACCESS:     560695 HIT:      15223 MISS:     545472 MSHR_MERGE:          0
cpu0->LLC RFO          ACCESS:          3 HIT:          0 MISS:          3 MSHR_MERGE:          0
cpu0->LLC PREFETCH     ACCESS:          0 HIT:          0 MISS:          0 MSHR_MERGE:          0
cpu0->LLC WRITE        ACCESS:       4966 HIT:       3324 MISS:       1642 MSHR_MERGE:          0
cpu0->LLC TRANSLATION  ACCESS:     114749 HIT:       4312 MISS:     110437 MSHR_MERGE:          0
cpu0->LLC PREFETCH REQUESTED:          0 ISSUED:          0 USEFUL:          0 USELESS:          0
cpu0->LLC AVERAGE MISS LATENCY: 94.36 cycles

DRAM Statistics

Channel 0 RQ ROW_BUFFER_HIT:        651
  ROW_BUFFER_MISS:     655261
  AVG DBUS CONGESTED CYCLE: 3.834
Channel 0 WQ ROW_BUFFER_HIT:        729
  ROW_BUFFER_MISS:       2547
  FULL:          0
Channel 0 REFRESHES ISSUED:       8678
[2025-09-15 16:14:16] END   suite=spec trace=459.GemsFDTD-1320B (rc=0)
