[2025-09-15 18:22:59] START suite=spec trace=459.GemsFDTD-765B
CMD: ./bin/champsim -w 20000000 -i 100000000 /home/ho/prefetch_aware_insertion_ptr/traces/spec2k17/459.GemsFDTD-765B.champsimtrace.xz
[VMEM] WARNING: physical memory size is smaller than virtual memory size.

*** ChampSim Multicore Out-of-Order Simulator ***
Warmup Instructions: 20000000
Simulation Instructions: 100000000
Number of CPUs: 1
Page size: 4096

Off-chip DRAM Size: 16 GiB Channels: 1 Width: 64-bit Data Rate: 3205 MT/s
Heartbeat CPU 0 instructions: 10000001 cycles: 4157946 heartbeat IPC: 2.405 cumulative IPC: 2.405 (Simulation time: 00 hr 00 min 54 sec)
Warmup finished CPU 0 instructions: 20000000 cycles: 8252114 cumulative IPC: 2.424 (Simulation time: 00 hr 01 min 48 sec)
Warmup complete CPU 0 instructions: 20000000 cycles: 8252114 cumulative IPC: 2.424 (Simulation time: 00 hr 01 min 48 sec)
Heartbeat CPU 0 instructions: 20000005 cycles: 8252115 heartbeat IPC: 2.442 cumulative IPC: 5 (Simulation time: 00 hr 01 min 48 sec)
Heartbeat CPU 0 instructions: 30000005 cycles: 17747398 heartbeat IPC: 1.053 cumulative IPC: 1.053 (Simulation time: 00 hr 03 min 23 sec)
Heartbeat CPU 0 instructions: 40000005 cycles: 27175206 heartbeat IPC: 1.061 cumulative IPC: 1.057 (Simulation time: 00 hr 04 min 59 sec)
Heartbeat CPU 0 instructions: 50000006 cycles: 44525360 heartbeat IPC: 0.5764 cumulative IPC: 0.8271 (Simulation time: 00 hr 07 min 36 sec)
Heartbeat CPU 0 instructions: 60000007 cycles: 66601951 heartbeat IPC: 0.453 cumulative IPC: 0.6855 (Simulation time: 00 hr 10 min 57 sec)
Heartbeat CPU 0 instructions: 70000010 cycles: 75242408 heartbeat IPC: 1.157 cumulative IPC: 0.7464 (Simulation time: 00 hr 12 min 29 sec)
Heartbeat CPU 0 instructions: 80000011 cycles: 83526772 heartbeat IPC: 1.207 cumulative IPC: 0.7971 (Simulation time: 00 hr 13 min 59 sec)
Heartbeat CPU 0 instructions: 90000011 cycles: 91796175 heartbeat IPC: 1.209 cumulative IPC: 0.8379 (Simulation time: 00 hr 15 min 27 sec)
Heartbeat CPU 0 instructions: 100000011 cycles: 100082740 heartbeat IPC: 1.207 cumulative IPC: 0.8712 (Simulation time: 00 hr 16 min 51 sec)
Heartbeat CPU 0 instructions: 110000015 cycles: 108360188 heartbeat IPC: 1.208 cumulative IPC: 0.899 (Simulation time: 00 hr 18 min 15 sec)
Simulation finished CPU 0 instructions: 100000000 cycles: 108385775 cumulative IPC: 0.9226 (Simulation time: 00 hr 19 min 38 sec)
Simulation complete CPU 0 instructions: 100000000 cycles: 108385775 cumulative IPC: 0.9226 (Simulation time: 00 hr 19 min 38 sec)

ChampSim completed all CPUs

=== Simulation ===
CPU 0 runs /home/ho/prefetch_aware_insertion_ptr/traces/spec2k17/459.GemsFDTD-765B.champsimtrace.xz

Region of Interest Statistics

CPU 0 cumulative IPC: 0.9226 instructions: 100000000 cycles: 108385775
CPU 0 Branch Prediction Accuracy: 93.95% MPKI: 0.3616 Average ROB Occupancy at Mispredict: 310.1
Branch type MPKI
BRANCH_DIRECT_JUMP: 6e-05
BRANCH_INDIRECT: 0
BRANCH_CONDITIONAL: 0.3615
BRANCH_DIRECT_CALL: 0
BRANCH_INDIRECT_CALL: 0
BRANCH_RETURN: 0


====Backend Stall Breakdown====
ROB_STALL: 28937989
LQ_STALL: 35725475
SQ_STALL: 0


====ROB Stall Breakdown====

== Average ==
ADDR_TRANS: 224.2889
REPLAY_LOAD: 100.71803
NON_REPLAY_LOAD: 12.337009

== Total ==
ADDR_TRANS: 7963826
REPLAY_LOAD: 5601534
NON_REPLAY_LOAD: 15372629

== Counts ==
ADDR_TRANS: 35507
REPLAY_LOAD: 55616
NON_REPLAY_LOAD: 1246058

cpu0->cpu0_STLB TOTAL        ACCESS:     393887 HIT:     112306 MISS:     281581 MSHR_MERGE:          0
cpu0->cpu0_STLB LOAD         ACCESS:     393887 HIT:     112306 MISS:     281581 MSHR_MERGE:          0
cpu0->cpu0_STLB RFO          ACCESS:          0 HIT:          0 MISS:          0 MSHR_MERGE:          0
cpu0->cpu0_STLB PREFETCH     ACCESS:          0 HIT:          0 MISS:          0 MSHR_MERGE:          0
cpu0->cpu0_STLB WRITE        ACCESS:          0 HIT:          0 MISS:          0 MSHR_MERGE:          0
cpu0->cpu0_STLB TRANSLATION  ACCESS:          0 HIT:          0 MISS:          0 MSHR_MERGE:          0
cpu0->cpu0_STLB PREFETCH REQUESTED:          0 ISSUED:          0 USEFUL:          0 USELESS:          0
cpu0->cpu0_STLB AVERAGE MISS LATENCY: 399.6 cycles
cpu0->cpu0_L2C TOTAL        ACCESS:    2564589 HIT:     976557 MISS:    1588032 MSHR_MERGE:          0
cpu0->cpu0_L2C LOAD         ACCESS:    1533631 HIT:     265056 MISS:    1268575 MSHR_MERGE:          0
cpu0->cpu0_L2C RFO          ACCESS:       2195 HIT:       2184 MISS:         11 MSHR_MERGE:          0
cpu0->cpu0_L2C PREFETCH     ACCESS:          0 HIT:          0 MISS:          0 MSHR_MERGE:          0
cpu0->cpu0_L2C WRITE        ACCESS:     706715 HIT:     706705 MISS:         10 MSHR_MERGE:          0
cpu0->cpu0_L2C TRANSLATION  ACCESS:     322048 HIT:       2612 MISS:     319436 MSHR_MERGE:          0
cpu0->cpu0_L2C PREFETCH REQUESTED:          0 ISSUED:          0 USEFUL:          0 USELESS:          0
cpu0->cpu0_L2C AVERAGE MISS LATENCY: 138.9 cycles
cpu0->cpu0_L1I TOTAL        ACCESS:   27466263 HIT:   27466101 MISS:        162 MSHR_MERGE:         53
cpu0->cpu0_L1I LOAD         ACCESS:   27466263 HIT:   27466101 MISS:        162 MSHR_MERGE:         53
cpu0->cpu0_L1I RFO          ACCESS:          0 HIT:          0 MISS:          0 MSHR_MERGE:          0
cpu0->cpu0_L1I PREFETCH     ACCESS:          0 HIT:          0 MISS:          0 MSHR_MERGE:          0
cpu0->cpu0_L1I WRITE        ACCESS:          0 HIT:          0 MISS:          0 MSHR_MERGE:          0
cpu0->cpu0_L1I TRANSLATION  ACCESS:          0 HIT:          0 MISS:          0 MSHR_MERGE:          0
cpu0->cpu0_L1I PREFETCH REQUESTED:          0 ISSUED:          0 USEFUL:          0 USELESS:          0
cpu0->cpu0_L1I AVERAGE MISS LATENCY: 150 cycles
cpu0->cpu0_L1D TOTAL        ACCESS:   52550976 HIT:   50444290 MISS:    2106686 MSHR_MERGE:     248919
cpu0->cpu0_L1D LOAD         ACCESS:   44756231 HIT:   42989922 MISS:    1766309 MSHR_MERGE:     232786
cpu0->cpu0_L1D RFO          ACCESS:          0 HIT:          0 MISS:          0 MSHR_MERGE:          0
cpu0->cpu0_L1D PREFETCH     ACCESS:          0 HIT:          0 MISS:          0 MSHR_MERGE:          0
cpu0->cpu0_L1D WRITE        ACCESS:    7230853 HIT:    7222291 MISS:       8562 MSHR_MERGE:       6366
cpu0->cpu0_L1D TRANSLATION  ACCESS:     563892 HIT:     232077 MISS:     331815 MSHR_MERGE:       9767
cpu0->cpu0_L1D PREFETCH REQUESTED:          0 ISSUED:          0 USEFUL:          0 USELESS:          0
cpu0->cpu0_L1D AVERAGE MISS LATENCY: 130.4 cycles
cpu0->cpu0_ITLB TOTAL        ACCESS:   23509200 HIT:   23509192 MISS:          8 MSHR_MERGE:          6
cpu0->cpu0_ITLB LOAD         ACCESS:   23509200 HIT:   23509192 MISS:          8 MSHR_MERGE:          6
cpu0->cpu0_ITLB RFO          ACCESS:          0 HIT:          0 MISS:          0 MSHR_MERGE:          0
cpu0->cpu0_ITLB PREFETCH     ACCESS:          0 HIT:          0 MISS:          0 MSHR_MERGE:          0
cpu0->cpu0_ITLB WRITE        ACCESS:          0 HIT:          0 MISS:          0 MSHR_MERGE:          0
cpu0->cpu0_ITLB TRANSLATION  ACCESS:          0 HIT:          0 MISS:          0 MSHR_MERGE:          0
cpu0->cpu0_ITLB PREFETCH REQUESTED:          0 ISSUED:          0 USEFUL:          0 USELESS:          0
cpu0->cpu0_ITLB AVERAGE MISS LATENCY: 869.5 cycles
cpu0->cpu0_DTLB TOTAL        ACCESS:   50297062 HIT:   49728102 MISS:     568960 MSHR_MERGE:     175075
cpu0->cpu0_DTLB LOAD         ACCESS:   50297062 HIT:   49728102 MISS:     568960 MSHR_MERGE:     175075
cpu0->cpu0_DTLB RFO          ACCESS:          0 HIT:          0 MISS:          0 MSHR_MERGE:          0
cpu0->cpu0_DTLB PREFETCH     ACCESS:          0 HIT:          0 MISS:          0 MSHR_MERGE:          0
cpu0->cpu0_DTLB WRITE        ACCESS:          0 HIT:          0 MISS:          0 MSHR_MERGE:          0
cpu0->cpu0_DTLB TRANSLATION  ACCESS:          0 HIT:          0 MISS:          0 MSHR_MERGE:          0
cpu0->cpu0_DTLB PREFETCH REQUESTED:          0 ISSUED:          0 USEFUL:          0 USELESS:          0
cpu0->cpu0_DTLB AVERAGE MISS LATENCY: 291.4 cycles
cpu0->LLC TOTAL        ACCESS:    2291978 HIT:     751319 MISS:    1540659 MSHR_MERGE:          0
cpu0->LLC LOAD         ACCESS:    1268575 HIT:      47213 MISS:    1221362 MSHR_MERGE:          0
cpu0->LLC RFO          ACCESS:         11 HIT:          0 MISS:         11 MSHR_MERGE:          0
cpu0->LLC PREFETCH     ACCESS:          0 HIT:          0 MISS:          0 MSHR_MERGE:          0
cpu0->LLC WRITE        ACCESS:     703956 HIT:     703936 MISS:         20 MSHR_MERGE:          0
cpu0->LLC TRANSLATION  ACCESS:     319436 HIT:        170 MISS:     319266 MSHR_MERGE:          0
cpu0->LLC PREFETCH REQUESTED:          0 ISSUED:          0 USEFUL:          0 USELESS:          0
cpu0->LLC AVERAGE MISS LATENCY: 114.1 cycles

DRAM Statistics

Channel 0 RQ ROW_BUFFER_HIT:       1889
  ROW_BUFFER_MISS:    1538750
  AVG DBUS CONGESTED CYCLE: 4.062
Channel 0 WQ ROW_BUFFER_HIT:     105490
  ROW_BUFFER_MISS:     598786
  FULL:          0
Channel 0 REFRESHES ISSUED:       9032
[2025-09-15 18:42:38] END   suite=spec trace=459.GemsFDTD-765B (rc=0)
