[2025-09-15 17:52:30] START suite=spec trace=459.GemsFDTD-1491B
CMD: ./bin/champsim -w 20000000 -i 100000000 /home/ho/prefetch_aware_insertion_ptr/traces/spec2k17/459.GemsFDTD-1491B.champsimtrace.xz
[VMEM] WARNING: physical memory size is smaller than virtual memory size.

*** ChampSim Multicore Out-of-Order Simulator ***
Warmup Instructions: 20000000
Simulation Instructions: 100000000
Number of CPUs: 1
Page size: 4096

Off-chip DRAM Size: 16 GiB Channels: 1 Width: 64-bit Data Rate: 3205 MT/s
Heartbeat CPU 0 instructions: 10000003 cycles: 2409959 heartbeat IPC: 4.149 cumulative IPC: 4.149 (Simulation time: 00 hr 00 min 38 sec)
Warmup finished CPU 0 instructions: 20000001 cycles: 4796960 cumulative IPC: 4.169 (Simulation time: 00 hr 01 min 13 sec)
Warmup complete CPU 0 instructions: 20000001 cycles: 4796960 cumulative IPC: 4.169 (Simulation time: 00 hr 01 min 13 sec)
Heartbeat CPU 0 instructions: 20000006 cycles: 4796961 heartbeat IPC: 4.189 cumulative IPC: 5 (Simulation time: 00 hr 01 min 13 sec)
Heartbeat CPU 0 instructions: 30000006 cycles: 16233703 heartbeat IPC: 0.8744 cumulative IPC: 0.8744 (Simulation time: 00 hr 03 min 04 sec)
Heartbeat CPU 0 instructions: 40000010 cycles: 27681149 heartbeat IPC: 0.8736 cumulative IPC: 0.874 (Simulation time: 00 hr 04 min 55 sec)
Heartbeat CPU 0 instructions: 50000012 cycles: 39161963 heartbeat IPC: 0.871 cumulative IPC: 0.873 (Simulation time: 00 hr 06 min 45 sec)
Heartbeat CPU 0 instructions: 60000015 cycles: 50633609 heartbeat IPC: 0.8717 cumulative IPC: 0.8727 (Simulation time: 00 hr 08 min 38 sec)
Heartbeat CPU 0 instructions: 70000019 cycles: 62067528 heartbeat IPC: 0.8746 cumulative IPC: 0.873 (Simulation time: 00 hr 10 min 30 sec)
Heartbeat CPU 0 instructions: 80000020 cycles: 73471519 heartbeat IPC: 0.8769 cumulative IPC: 0.8737 (Simulation time: 00 hr 12 min 24 sec)
Heartbeat CPU 0 instructions: 90000021 cycles: 84917186 heartbeat IPC: 0.8737 cumulative IPC: 0.8737 (Simulation time: 00 hr 14 min 18 sec)
Heartbeat CPU 0 instructions: 100000021 cycles: 96420984 heartbeat IPC: 0.8693 cumulative IPC: 0.8731 (Simulation time: 00 hr 16 min 13 sec)
Heartbeat CPU 0 instructions: 110000022 cycles: 107858765 heartbeat IPC: 0.8743 cumulative IPC: 0.8733 (Simulation time: 00 hr 18 min 09 sec)
Simulation finished CPU 0 instructions: 100000004 cycles: 114503429 cumulative IPC: 0.8733 (Simulation time: 00 hr 20 min 02 sec)
Simulation complete CPU 0 instructions: 100000004 cycles: 114503429 cumulative IPC: 0.8733 (Simulation time: 00 hr 20 min 02 sec)

ChampSim completed all CPUs

=== Simulation ===
CPU 0 runs /home/ho/prefetch_aware_insertion_ptr/traces/spec2k17/459.GemsFDTD-1491B.champsimtrace.xz

Region of Interest Statistics

CPU 0 cumulative IPC: 0.8733 instructions: 100000004 cycles: 114503429
CPU 0 Branch Prediction Accuracy: 99.53% MPKI: 0.1139 Average ROB Occupancy at Mispredict: 351
Branch type MPKI
BRANCH_DIRECT_JUMP: 0
BRANCH_INDIRECT: 0
BRANCH_CONDITIONAL: 0.1139
BRANCH_DIRECT_CALL: 0
BRANCH_INDIRECT_CALL: 0
BRANCH_RETURN: 0


====Backend Stall Breakdown====
ROB_STALL: 91108912
LQ_STALL: 0
SQ_STALL: 0


====ROB Stall Breakdown====

== Average ==
ADDR_TRANS: 386.76395
REPLAY_LOAD: 82.30288
NON_REPLAY_LOAD: 31.532858

== Total ==
ADDR_TRANS: 4010742
REPLAY_LOAD: 1340467
NON_REPLAY_LOAD: 85757703

== Counts ==
ADDR_TRANS: 10370
REPLAY_LOAD: 16287
NON_REPLAY_LOAD: 2719630

cpu0->cpu0_STLB TOTAL        ACCESS:      42021 HIT:      10518 MISS:      31503 MSHR_MERGE:          0
cpu0->cpu0_STLB LOAD         ACCESS:      42021 HIT:      10518 MISS:      31503 MSHR_MERGE:          0
cpu0->cpu0_STLB RFO          ACCESS:          0 HIT:          0 MISS:          0 MSHR_MERGE:          0
cpu0->cpu0_STLB PREFETCH     ACCESS:          0 HIT:          0 MISS:          0 MSHR_MERGE:          0
cpu0->cpu0_STLB WRITE        ACCESS:          0 HIT:          0 MISS:          0 MSHR_MERGE:          0
cpu0->cpu0_STLB TRANSLATION  ACCESS:          0 HIT:          0 MISS:          0 MSHR_MERGE:          0
cpu0->cpu0_STLB PREFETCH REQUESTED:          0 ISSUED:          0 USEFUL:          0 USELESS:          0
cpu0->cpu0_STLB AVERAGE MISS LATENCY: 577.9 cycles
cpu0->cpu0_L2C TOTAL        ACCESS:    3404938 HIT:     918035 MISS:    2486903 MSHR_MERGE:          0
cpu0->cpu0_L2C LOAD         ACCESS:    2451104 HIT:          0 MISS:    2451104 MSHR_MERGE:          0
cpu0->cpu0_L2C RFO          ACCESS:          0 HIT:          0 MISS:          0 MSHR_MERGE:          0
cpu0->cpu0_L2C PREFETCH     ACCESS:          0 HIT:          0 MISS:          0 MSHR_MERGE:          0
cpu0->cpu0_L2C WRITE        ACCESS:     917999 HIT:     917999 MISS:          0 MSHR_MERGE:          0
cpu0->cpu0_L2C TRANSLATION  ACCESS:      35835 HIT:         36 MISS:      35799 MSHR_MERGE:          0
cpu0->cpu0_L2C PREFETCH REQUESTED:          0 ISSUED:          0 USEFUL:          0 USELESS:          0
cpu0->cpu0_L2C AVERAGE MISS LATENCY: 139.8 cycles
cpu0->cpu0_L1I TOTAL        ACCESS:   16783067 HIT:   16783067 MISS:          0 MSHR_MERGE:          0
cpu0->cpu0_L1I LOAD         ACCESS:   16783067 HIT:   16783067 MISS:          0 MSHR_MERGE:          0
cpu0->cpu0_L1I RFO          ACCESS:          0 HIT:          0 MISS:          0 MSHR_MERGE:          0
cpu0->cpu0_L1I PREFETCH     ACCESS:          0 HIT:          0 MISS:          0 MSHR_MERGE:          0
cpu0->cpu0_L1I WRITE        ACCESS:          0 HIT:          0 MISS:          0 MSHR_MERGE:          0
cpu0->cpu0_L1I TRANSLATION  ACCESS:          0 HIT:          0 MISS:          0 MSHR_MERGE:          0
cpu0->cpu0_L1I PREFETCH REQUESTED:          0 ISSUED:          0 USEFUL:          0 USELESS:          0
cpu0->cpu0_L1I AVERAGE MISS LATENCY: - cycles
cpu0->cpu0_L1D TOTAL        ACCESS:   28474409 HIT:   21845543 MISS:    6628866 MSHR_MERGE:    4141927
cpu0->cpu0_L1D LOAD         ACCESS:   21224681 HIT:   14631671 MISS:    6593010 MSHR_MERGE:    4141906
cpu0->cpu0_L1D RFO          ACCESS:          0 HIT:          0 MISS:          0 MSHR_MERGE:          0
cpu0->cpu0_L1D PREFETCH     ACCESS:          0 HIT:          0 MISS:          0 MSHR_MERGE:          0
cpu0->cpu0_L1D WRITE        ACCESS:    7186654 HIT:    7186654 MISS:          0 MSHR_MERGE:          0
cpu0->cpu0_L1D TRANSLATION  ACCESS:      63074 HIT:      27218 MISS:      35856 MSHR_MERGE:         21
cpu0->cpu0_L1D PREFETCH REQUESTED:          0 ISSUED:          0 USEFUL:          0 USELESS:          0
cpu0->cpu0_L1D AVERAGE MISS LATENCY: 152.7 cycles
cpu0->cpu0_ITLB TOTAL        ACCESS:   14232137 HIT:   14232137 MISS:          0 MSHR_MERGE:          0
cpu0->cpu0_ITLB LOAD         ACCESS:   14232137 HIT:   14232137 MISS:          0 MSHR_MERGE:          0
cpu0->cpu0_ITLB RFO          ACCESS:          0 HIT:          0 MISS:          0 MSHR_MERGE:          0
cpu0->cpu0_ITLB PREFETCH     ACCESS:          0 HIT:          0 MISS:          0 MSHR_MERGE:          0
cpu0->cpu0_ITLB WRITE        ACCESS:          0 HIT:          0 MISS:          0 MSHR_MERGE:          0
cpu0->cpu0_ITLB TRANSLATION  ACCESS:          0 HIT:          0 MISS:          0 MSHR_MERGE:          0
cpu0->cpu0_ITLB PREFETCH REQUESTED:          0 ISSUED:          0 USEFUL:          0 USELESS:          0
cpu0->cpu0_ITLB AVERAGE MISS LATENCY: - cycles
cpu0->cpu0_DTLB TOTAL        ACCESS:   28172914 HIT:   28046124 MISS:     126790 MSHR_MERGE:      84769
cpu0->cpu0_DTLB LOAD         ACCESS:   28172914 HIT:   28046124 MISS:     126790 MSHR_MERGE:      84769
cpu0->cpu0_DTLB RFO          ACCESS:          0 HIT:          0 MISS:          0 MSHR_MERGE:          0
cpu0->cpu0_DTLB PREFETCH     ACCESS:          0 HIT:          0 MISS:          0 MSHR_MERGE:          0
cpu0->cpu0_DTLB WRITE        ACCESS:          0 HIT:          0 MISS:          0 MSHR_MERGE:          0
cpu0->cpu0_DTLB TRANSLATION  ACCESS:          0 HIT:          0 MISS:          0 MSHR_MERGE:          0
cpu0->cpu0_DTLB PREFETCH REQUESTED:          0 ISSUED:          0 USEFUL:          0 USELESS:          0
cpu0->cpu0_DTLB AVERAGE MISS LATENCY: 439 cycles
cpu0->LLC TOTAL        ACCESS:    3404673 HIT:     960413 MISS:    2444260 MSHR_MERGE:          0
cpu0->LLC LOAD         ACCESS:    2451104 HIT:      42643 MISS:    2408461 MSHR_MERGE:          0
cpu0->LLC RFO          ACCESS:          0 HIT:          0 MISS:          0 MSHR_MERGE:          0
cpu0->LLC PREFETCH     ACCESS:          0 HIT:          0 MISS:          0 MSHR_MERGE:          0
cpu0->LLC WRITE        ACCESS:     917770 HIT:     917770 MISS:          0 MSHR_MERGE:          0
cpu0->LLC TRANSLATION  ACCESS:      35799 HIT:          0 MISS:      35799 MSHR_MERGE:          0
cpu0->LLC PREFETCH REQUESTED:          0 ISSUED:          0 USEFUL:          0 USELESS:          0
cpu0->LLC AVERAGE MISS LATENCY: 111 cycles

DRAM Statistics

Channel 0 RQ ROW_BUFFER_HIT:        440
  ROW_BUFFER_MISS:    2443820
  AVG DBUS CONGESTED CYCLE: 3.323
Channel 0 WQ ROW_BUFFER_HIT:     186819
  ROW_BUFFER_MISS:     730699
  FULL:          0
Channel 0 REFRESHES ISSUED:       9542
[2025-09-15 18:12:33] END   suite=spec trace=459.GemsFDTD-1491B (rc=0)
