[2025-09-15 15:33:55] START suite=spec trace=459.GemsFDTD-1169B
CMD: ./bin/champsim -w 20000000 -i 100000000 /home/ho/prefetch_aware_insertion_ptr/traces/spec2k17/459.GemsFDTD-1169B.champsimtrace.xz
[VMEM] WARNING: physical memory size is smaller than virtual memory size.

*** ChampSim Multicore Out-of-Order Simulator ***
Warmup Instructions: 20000000
Simulation Instructions: 100000000
Number of CPUs: 1
Page size: 4096

Off-chip DRAM Size: 16 GiB Channels: 1 Width: 64-bit Data Rate: 3205 MT/s
Heartbeat CPU 0 instructions: 10000004 cycles: 2168340 heartbeat IPC: 4.612 cumulative IPC: 4.612 (Simulation time: 00 hr 00 min 29 sec)
Warmup finished CPU 0 instructions: 20000000 cycles: 9225742 cumulative IPC: 2.168 (Simulation time: 00 hr 01 min 45 sec)
Warmup complete CPU 0 instructions: 20000000 cycles: 9225742 cumulative IPC: 2.168 (Simulation time: 00 hr 01 min 45 sec)
Heartbeat CPU 0 instructions: 20000005 cycles: 9225743 heartbeat IPC: 1.417 cumulative IPC: 5 (Simulation time: 00 hr 01 min 45 sec)
Heartbeat CPU 0 instructions: 30000006 cycles: 31180886 heartbeat IPC: 0.4555 cumulative IPC: 0.4555 (Simulation time: 00 hr 04 min 43 sec)
Heartbeat CPU 0 instructions: 40000010 cycles: 49783820 heartbeat IPC: 0.5375 cumulative IPC: 0.4931 (Simulation time: 00 hr 07 min 19 sec)
Heartbeat CPU 0 instructions: 50000011 cycles: 57504918 heartbeat IPC: 1.295 cumulative IPC: 0.6214 (Simulation time: 00 hr 08 min 43 sec)
Heartbeat CPU 0 instructions: 60000012 cycles: 65070041 heartbeat IPC: 1.322 cumulative IPC: 0.7163 (Simulation time: 00 hr 10 min 05 sec)
Heartbeat CPU 0 instructions: 70000013 cycles: 71979461 heartbeat IPC: 1.447 cumulative IPC: 0.7968 (Simulation time: 00 hr 11 min 22 sec)
Heartbeat CPU 0 instructions: 80000015 cycles: 78688986 heartbeat IPC: 1.49 cumulative IPC: 0.8638 (Simulation time: 00 hr 12 min 35 sec)
Heartbeat CPU 0 instructions: 90000016 cycles: 85157208 heartbeat IPC: 1.546 cumulative IPC: 0.9219 (Simulation time: 00 hr 13 min 50 sec)
Heartbeat CPU 0 instructions: 100000018 cycles: 97705324 heartbeat IPC: 0.7969 cumulative IPC: 0.9042 (Simulation time: 00 hr 15 min 50 sec)
Heartbeat CPU 0 instructions: 110000020 cycles: 112418760 heartbeat IPC: 0.6797 cumulative IPC: 0.8722 (Simulation time: 00 hr 17 min 55 sec)
Simulation finished CPU 0 instructions: 100000001 cycles: 115495397 cumulative IPC: 0.8658 (Simulation time: 00 hr 19 min 46 sec)
Simulation complete CPU 0 instructions: 100000001 cycles: 115495397 cumulative IPC: 0.8658 (Simulation time: 00 hr 19 min 46 sec)

ChampSim completed all CPUs

=== Simulation ===
CPU 0 runs /home/ho/prefetch_aware_insertion_ptr/traces/spec2k17/459.GemsFDTD-1169B.champsimtrace.xz

Region of Interest Statistics

CPU 0 cumulative IPC: 0.8658 instructions: 100000001 cycles: 115495397
CPU 0 Branch Prediction Accuracy: 99.45% MPKI: 0.01428 Average ROB Occupancy at Mispredict: 342.4
Branch type MPKI
BRANCH_DIRECT_JUMP: 2e-05
BRANCH_INDIRECT: 0
BRANCH_CONDITIONAL: 0.01426
BRANCH_DIRECT_CALL: 0
BRANCH_INDIRECT_CALL: 0
BRANCH_RETURN: 0


====Backend Stall Breakdown====
ROB_STALL: 84343189
LQ_STALL: 3196788
SQ_STALL: 0


====ROB Stall Breakdown====

== Average ==
ADDR_TRANS: 198.63768
REPLAY_LOAD: 71.50144
NON_REPLAY_LOAD: 13.680627

== Total ==
ADDR_TRANS: 27348437
REPLAY_LOAD: 12396634
NON_REPLAY_LOAD: 44598118

== Counts ==
ADDR_TRANS: 137680
REPLAY_LOAD: 173376
NON_REPLAY_LOAD: 3259947

cpu0->cpu0_STLB TOTAL        ACCESS:    1365876 HIT:    1118498 MISS:     247378 MSHR_MERGE:          0
cpu0->cpu0_STLB LOAD         ACCESS:    1365876 HIT:    1118498 MISS:     247378 MSHR_MERGE:          0
cpu0->cpu0_STLB RFO          ACCESS:          0 HIT:          0 MISS:          0 MSHR_MERGE:          0
cpu0->cpu0_STLB PREFETCH     ACCESS:          0 HIT:          0 MISS:          0 MSHR_MERGE:          0
cpu0->cpu0_STLB WRITE        ACCESS:          0 HIT:          0 MISS:          0 MSHR_MERGE:          0
cpu0->cpu0_STLB TRANSLATION  ACCESS:          0 HIT:          0 MISS:          0 MSHR_MERGE:          0
cpu0->cpu0_STLB PREFETCH REQUESTED:          0 ISSUED:          0 USEFUL:          0 USELESS:          0
cpu0->cpu0_STLB AVERAGE MISS LATENCY: 226.2 cycles
cpu0->cpu0_L2C TOTAL        ACCESS:    4930168 HIT:    3910863 MISS:    1019305 MSHR_MERGE:          0
cpu0->cpu0_L2C LOAD         ACCESS:    3726040 HIT:    2943757 MISS:     782283 MSHR_MERGE:          0
cpu0->cpu0_L2C RFO          ACCESS:          6 HIT:          0 MISS:          6 MSHR_MERGE:          0
cpu0->cpu0_L2C PREFETCH     ACCESS:          0 HIT:          0 MISS:          0 MSHR_MERGE:          0
cpu0->cpu0_L2C WRITE        ACCESS:     673890 HIT:     673874 MISS:         16 MSHR_MERGE:          0
cpu0->cpu0_L2C TRANSLATION  ACCESS:     530232 HIT:     293232 MISS:     237000 MSHR_MERGE:          0
cpu0->cpu0_L2C PREFETCH REQUESTED:          0 ISSUED:          0 USEFUL:          0 USELESS:          0
cpu0->cpu0_L2C AVERAGE MISS LATENCY: 114.7 cycles
cpu0->cpu0_L1I TOTAL        ACCESS:   20709128 HIT:   20708829 MISS:        299 MSHR_MERGE:        116
cpu0->cpu0_L1I LOAD         ACCESS:   20709128 HIT:   20708829 MISS:        299 MSHR_MERGE:        116
cpu0->cpu0_L1I RFO          ACCESS:          0 HIT:          0 MISS:          0 MSHR_MERGE:          0
cpu0->cpu0_L1I PREFETCH     ACCESS:          0 HIT:          0 MISS:          0 MSHR_MERGE:          0
cpu0->cpu0_L1I WRITE        ACCESS:          0 HIT:          0 MISS:          0 MSHR_MERGE:          0
cpu0->cpu0_L1I TRANSLATION  ACCESS:          0 HIT:          0 MISS:          0 MSHR_MERGE:          0
cpu0->cpu0_L1I PREFETCH REQUESTED:          0 ISSUED:          0 USEFUL:          0 USELESS:          0
cpu0->cpu0_L1I AVERAGE MISS LATENCY: 146.1 cycles
cpu0->cpu0_L1D TOTAL        ACCESS:   46589883 HIT:   41851351 MISS:    4738532 MSHR_MERGE:     482437
cpu0->cpu0_L1D LOAD         ACCESS:   42703353 HIT:   38495063 MISS:    4208290 MSHR_MERGE:     482433
cpu0->cpu0_L1D RFO          ACCESS:          0 HIT:          0 MISS:          0 MSHR_MERGE:          0
cpu0->cpu0_L1D PREFETCH     ACCESS:          0 HIT:          0 MISS:          0 MSHR_MERGE:          0
cpu0->cpu0_L1D WRITE        ACCESS:    3318300 HIT:    3318292 MISS:          8 MSHR_MERGE:          2
cpu0->cpu0_L1D TRANSLATION  ACCESS:     568230 HIT:      37996 MISS:     530234 MSHR_MERGE:          2
cpu0->cpu0_L1D PREFETCH REQUESTED:          0 ISSUED:          0 USEFUL:          0 USELESS:          0
cpu0->cpu0_L1D AVERAGE MISS LATENCY: 39.47 cycles
cpu0->cpu0_ITLB TOTAL        ACCESS:   17298395 HIT:   17298373 MISS:         22 MSHR_MERGE:         19
cpu0->cpu0_ITLB LOAD         ACCESS:   17298395 HIT:   17298373 MISS:         22 MSHR_MERGE:         19
cpu0->cpu0_ITLB RFO          ACCESS:          0 HIT:          0 MISS:          0 MSHR_MERGE:          0
cpu0->cpu0_ITLB PREFETCH     ACCESS:          0 HIT:          0 MISS:          0 MSHR_MERGE:          0
cpu0->cpu0_ITLB WRITE        ACCESS:          0 HIT:          0 MISS:          0 MSHR_MERGE:          0
cpu0->cpu0_ITLB TRANSLATION  ACCESS:          0 HIT:          0 MISS:          0 MSHR_MERGE:          0
cpu0->cpu0_ITLB PREFETCH REQUESTED:          0 ISSUED:          0 USEFUL:          0 USELESS:          0
cpu0->cpu0_ITLB AVERAGE MISS LATENCY: 688 cycles
cpu0->cpu0_DTLB TOTAL        ACCESS:   44891288 HIT:   43430754 MISS:    1460534 MSHR_MERGE:      94661
cpu0->cpu0_DTLB LOAD         ACCESS:   44891288 HIT:   43430754 MISS:    1460534 MSHR_MERGE:      94661
cpu0->cpu0_DTLB RFO          ACCESS:          0 HIT:          0 MISS:          0 MSHR_MERGE:          0
cpu0->cpu0_DTLB PREFETCH     ACCESS:          0 HIT:          0 MISS:          0 MSHR_MERGE:          0
cpu0->cpu0_DTLB WRITE        ACCESS:          0 HIT:          0 MISS:          0 MSHR_MERGE:          0
cpu0->cpu0_DTLB TRANSLATION  ACCESS:          0 HIT:          0 MISS:          0 MSHR_MERGE:          0
cpu0->cpu0_DTLB PREFETCH REQUESTED:          0 ISSUED:          0 USEFUL:          0 USELESS:          0
cpu0->cpu0_DTLB AVERAGE MISS LATENCY: 46.14 cycles
cpu0->LLC TOTAL        ACCESS:    1031304 HIT:     105881 MISS:     925423 MSHR_MERGE:          0
cpu0->LLC LOAD         ACCESS:     782283 HIT:      51647 MISS:     730636 MSHR_MERGE:          0
cpu0->LLC RFO          ACCESS:          6 HIT:          0 MISS:          6 MSHR_MERGE:          0
cpu0->LLC PREFETCH     ACCESS:          0 HIT:          0 MISS:          0 MSHR_MERGE:          0
cpu0->LLC WRITE        ACCESS:      12015 HIT:       8980 MISS:       3035 MSHR_MERGE:          0
cpu0->LLC TRANSLATION  ACCESS:     237000 HIT:      45254 MISS:     191746 MSHR_MERGE:          0
cpu0->LLC PREFETCH REQUESTED:          0 ISSUED:          0 USEFUL:          0 USELESS:          0
cpu0->LLC AVERAGE MISS LATENCY: 96.24 cycles

DRAM Statistics

Channel 0 RQ ROW_BUFFER_HIT:        819
  ROW_BUFFER_MISS:     921569
  AVG DBUS CONGESTED CYCLE: 3.589
Channel 0 WQ ROW_BUFFER_HIT:        813
  ROW_BUFFER_MISS:       1972
  FULL:          0
Channel 0 REFRESHES ISSUED:       9625
[2025-09-15 15:53:41] END   suite=spec trace=459.GemsFDTD-1169B (rc=0)
