[2025-09-15 16:33:16] START suite=spec trace=462.libquantum-714B
CMD: ./bin/champsim -w 20000000 -i 100000000 /home/ho/prefetch_aware_insertion_ptr/traces/spec2k17/462.libquantum-714B.champsimtrace.xz
[VMEM] WARNING: physical memory size is smaller than virtual memory size.

*** ChampSim Multicore Out-of-Order Simulator ***
Warmup Instructions: 20000000
Simulation Instructions: 100000000
Number of CPUs: 1
Page size: 4096

Off-chip DRAM Size: 16 GiB Channels: 1 Width: 64-bit Data Rate: 3205 MT/s
Heartbeat CPU 0 instructions: 10000001 cycles: 3403465 heartbeat IPC: 2.938 cumulative IPC: 2.938 (Simulation time: 00 hr 00 min 42 sec)
Warmup finished CPU 0 instructions: 20000000 cycles: 7256804 cumulative IPC: 2.756 (Simulation time: 00 hr 01 min 28 sec)
Warmup complete CPU 0 instructions: 20000000 cycles: 7256804 cumulative IPC: 2.756 (Simulation time: 00 hr 01 min 28 sec)
Heartbeat CPU 0 instructions: 20000005 cycles: 7256805 heartbeat IPC: 2.595 cumulative IPC: 5 (Simulation time: 00 hr 01 min 28 sec)
Heartbeat CPU 0 instructions: 30000009 cycles: 18023821 heartbeat IPC: 0.9288 cumulative IPC: 0.9288 (Simulation time: 00 hr 03 min 07 sec)
Heartbeat CPU 0 instructions: 40000013 cycles: 26591125 heartbeat IPC: 1.167 cumulative IPC: 1.034 (Simulation time: 00 hr 04 min 29 sec)
Heartbeat CPU 0 instructions: 50000014 cycles: 34984044 heartbeat IPC: 1.191 cumulative IPC: 1.082 (Simulation time: 00 hr 05 min 48 sec)
Heartbeat CPU 0 instructions: 60000018 cycles: 42849094 heartbeat IPC: 1.271 cumulative IPC: 1.124 (Simulation time: 00 hr 07 min 05 sec)
Heartbeat CPU 0 instructions: 70000019 cycles: 50789758 heartbeat IPC: 1.259 cumulative IPC: 1.149 (Simulation time: 00 hr 08 min 21 sec)
Heartbeat CPU 0 instructions: 80000023 cycles: 65422385 heartbeat IPC: 0.6834 cumulative IPC: 1.032 (Simulation time: 00 hr 10 min 40 sec)
Heartbeat CPU 0 instructions: 90000025 cycles: 76684025 heartbeat IPC: 0.888 cumulative IPC: 1.008 (Simulation time: 00 hr 12 min 28 sec)
Heartbeat CPU 0 instructions: 100000028 cycles: 85256240 heartbeat IPC: 1.167 cumulative IPC: 1.026 (Simulation time: 00 hr 13 min 50 sec)
Heartbeat CPU 0 instructions: 110000029 cycles: 93977801 heartbeat IPC: 1.147 cumulative IPC: 1.038 (Simulation time: 00 hr 15 min 08 sec)
Simulation finished CPU 0 instructions: 100000004 cycles: 95781582 cumulative IPC: 1.044 (Simulation time: 00 hr 16 min 25 sec)
Simulation complete CPU 0 instructions: 100000004 cycles: 95781582 cumulative IPC: 1.044 (Simulation time: 00 hr 16 min 25 sec)

ChampSim completed all CPUs

=== Simulation ===
CPU 0 runs /home/ho/prefetch_aware_insertion_ptr/traces/spec2k17/462.libquantum-714B.champsimtrace.xz

Region of Interest Statistics

CPU 0 cumulative IPC: 1.044 instructions: 100000004 cycles: 95781582
CPU 0 Branch Prediction Accuracy: 99.71% MPKI: 0.5139 Average ROB Occupancy at Mispredict: 301
Branch type MPKI
BRANCH_DIRECT_JUMP: 0
BRANCH_INDIRECT: 1e-05
BRANCH_CONDITIONAL: 0.5137
BRANCH_DIRECT_CALL: 5e-05
BRANCH_INDIRECT_CALL: 0
BRANCH_RETURN: 6e-05


====Backend Stall Breakdown====
ROB_STALL: 60457025
LQ_STALL: 506
SQ_STALL: 3


====ROB Stall Breakdown====

== Average ==
ADDR_TRANS: 54.565033
REPLAY_LOAD: 129.13857
NON_REPLAY_LOAD: 60.09533

== Total ==
ADDR_TRANS: 1783349
REPLAY_LOAD: 4840759
NON_REPLAY_LOAD: 53832917

== Counts ==
ADDR_TRANS: 32683
REPLAY_LOAD: 37485
NON_REPLAY_LOAD: 895792

cpu0->cpu0_STLB TOTAL        ACCESS:      39055 HIT:          0 MISS:      39055 MSHR_MERGE:          0
cpu0->cpu0_STLB LOAD         ACCESS:      39055 HIT:          0 MISS:      39055 MSHR_MERGE:          0
cpu0->cpu0_STLB RFO          ACCESS:          0 HIT:          0 MISS:          0 MSHR_MERGE:          0
cpu0->cpu0_STLB PREFETCH     ACCESS:          0 HIT:          0 MISS:          0 MSHR_MERGE:          0
cpu0->cpu0_STLB WRITE        ACCESS:          0 HIT:          0 MISS:          0 MSHR_MERGE:          0
cpu0->cpu0_STLB TRANSLATION  ACCESS:          0 HIT:          0 MISS:          0 MSHR_MERGE:          0
cpu0->cpu0_STLB PREFETCH REQUESTED:          0 ISSUED:          0 USEFUL:          0 USELESS:          0
cpu0->cpu0_STLB AVERAGE MISS LATENCY: 198.3 cycles
cpu0->cpu0_L2C TOTAL        ACCESS:    3223459 HIT:     680564 MISS:    2542895 MSHR_MERGE:          0
cpu0->cpu0_L2C LOAD         ACCESS:    2498935 HIT:          0 MISS:    2498935 MSHR_MERGE:          0
cpu0->cpu0_L2C RFO          ACCESS:         20 HIT:          0 MISS:         20 MSHR_MERGE:          0
cpu0->cpu0_L2C PREFETCH     ACCESS:          0 HIT:          0 MISS:          0 MSHR_MERGE:          0
cpu0->cpu0_L2C WRITE        ACCESS:     680564 HIT:     680564 MISS:          0 MSHR_MERGE:          0
cpu0->cpu0_L2C TRANSLATION  ACCESS:      43940 HIT:          0 MISS:      43940 MSHR_MERGE:          0
cpu0->cpu0_L2C PREFETCH REQUESTED:          0 ISSUED:          0 USEFUL:          0 USELESS:          0
cpu0->cpu0_L2C AVERAGE MISS LATENCY: 144.4 cycles
cpu0->cpu0_L1I TOTAL        ACCESS:   17102996 HIT:   17102992 MISS:          4 MSHR_MERGE:          0
cpu0->cpu0_L1I LOAD         ACCESS:   17102996 HIT:   17102992 MISS:          4 MSHR_MERGE:          0
cpu0->cpu0_L1I RFO          ACCESS:          0 HIT:          0 MISS:          0 MSHR_MERGE:          0
cpu0->cpu0_L1I PREFETCH     ACCESS:          0 HIT:          0 MISS:          0 MSHR_MERGE:          0
cpu0->cpu0_L1I WRITE        ACCESS:          0 HIT:          0 MISS:          0 MSHR_MERGE:          0
cpu0->cpu0_L1I TRANSLATION  ACCESS:          0 HIT:          0 MISS:          0 MSHR_MERGE:          0
cpu0->cpu0_L1I PREFETCH REQUESTED:          0 ISSUED:          0 USEFUL:          0 USELESS:          0
cpu0->cpu0_L1I AVERAGE MISS LATENCY: 178.5 cycles
cpu0->cpu0_L1D TOTAL        ACCESS:   24465179 HIT:   16161235 MISS:    8303944 MSHR_MERGE:    5761052
cpu0->cpu0_L1D LOAD         ACCESS:   21821634 HIT:   13561694 MISS:    8259940 MSHR_MERGE:    5761008
cpu0->cpu0_L1D RFO          ACCESS:          0 HIT:          0 MISS:          0 MSHR_MERGE:          0
cpu0->cpu0_L1D PREFETCH     ACCESS:          0 HIT:          0 MISS:          0 MSHR_MERGE:          0
cpu0->cpu0_L1D WRITE        ACCESS:    2565435 HIT:    2565371 MISS:         64 MSHR_MERGE:         44
cpu0->cpu0_L1D TRANSLATION  ACCESS:      78110 HIT:      34170 MISS:      43940 MSHR_MERGE:          0
cpu0->cpu0_L1D PREFETCH REQUESTED:          0 ISSUED:          0 USEFUL:          0 USELESS:          0
cpu0->cpu0_L1D AVERAGE MISS LATENCY: 157.3 cycles
cpu0->cpu0_ITLB TOTAL        ACCESS:   11432265 HIT:   11432265 MISS:          0 MSHR_MERGE:          0
cpu0->cpu0_ITLB LOAD         ACCESS:   11432265 HIT:   11432265 MISS:          0 MSHR_MERGE:          0
cpu0->cpu0_ITLB RFO          ACCESS:          0 HIT:          0 MISS:          0 MSHR_MERGE:          0
cpu0->cpu0_ITLB PREFETCH     ACCESS:          0 HIT:          0 MISS:          0 MSHR_MERGE:          0
cpu0->cpu0_ITLB WRITE        ACCESS:          0 HIT:          0 MISS:          0 MSHR_MERGE:          0
cpu0->cpu0_ITLB TRANSLATION  ACCESS:          0 HIT:          0 MISS:          0 MSHR_MERGE:          0
cpu0->cpu0_ITLB PREFETCH REQUESTED:          0 ISSUED:          0 USEFUL:          0 USELESS:          0
cpu0->cpu0_ITLB AVERAGE MISS LATENCY: - cycles
cpu0->cpu0_DTLB TOTAL        ACCESS:   23534892 HIT:   22973523 MISS:     561369 MSHR_MERGE:     522314
cpu0->cpu0_DTLB LOAD         ACCESS:   23534892 HIT:   22973523 MISS:     561369 MSHR_MERGE:     522314
cpu0->cpu0_DTLB RFO          ACCESS:          0 HIT:          0 MISS:          0 MSHR_MERGE:          0
cpu0->cpu0_DTLB PREFETCH     ACCESS:          0 HIT:          0 MISS:          0 MSHR_MERGE:          0
cpu0->cpu0_DTLB WRITE        ACCESS:          0 HIT:          0 MISS:          0 MSHR_MERGE:          0
cpu0->cpu0_DTLB TRANSLATION  ACCESS:          0 HIT:          0 MISS:          0 MSHR_MERGE:          0
cpu0->cpu0_DTLB PREFETCH REQUESTED:          0 ISSUED:          0 USEFUL:          0 USELESS:          0
cpu0->cpu0_DTLB AVERAGE MISS LATENCY: 204.3 cycles
cpu0->LLC TOTAL        ACCESS:    3230294 HIT:     687400 MISS:    2542894 MSHR_MERGE:          0
cpu0->LLC LOAD         ACCESS:    2498934 HIT:          0 MISS:    2498934 MSHR_MERGE:          0
cpu0->LLC RFO          ACCESS:         20 HIT:          0 MISS:         20 MSHR_MERGE:          0
cpu0->LLC PREFETCH     ACCESS:          0 HIT:          0 MISS:          0 MSHR_MERGE:          0
cpu0->LLC WRITE        ACCESS:     687400 HIT:     687400 MISS:          0 MSHR_MERGE:          0
cpu0->LLC TRANSLATION  ACCESS:      43940 HIT:          0 MISS:      43940 MSHR_MERGE:          0
cpu0->LLC PREFETCH REQUESTED:          0 ISSUED:          0 USEFUL:          0 USELESS:          0
cpu0->LLC AVERAGE MISS LATENCY: 113.7 cycles

DRAM Statistics

Channel 0 RQ ROW_BUFFER_HIT:     541868
  ROW_BUFFER_MISS:    2001014
  AVG DBUS CONGESTED CYCLE: 5.417
Channel 0 WQ ROW_BUFFER_HIT:     120408
  ROW_BUFFER_MISS:     589624
  FULL:          0
Channel 0 REFRESHES ISSUED:       7982
[2025-09-15 16:49:41] END   suite=spec trace=462.libquantum-714B (rc=0)
