[2025-09-15 18:42:38] START suite=spec trace=462.libquantum-1343B
CMD: ./bin/champsim -w 20000000 -i 100000000 /home/ho/prefetch_aware_insertion_ptr/traces/spec2k17/462.libquantum-1343B.champsimtrace.xz
[VMEM] WARNING: physical memory size is smaller than virtual memory size.

*** ChampSim Multicore Out-of-Order Simulator ***
Warmup Instructions: 20000000
Simulation Instructions: 100000000
Number of CPUs: 1
Page size: 4096

Off-chip DRAM Size: 16 GiB Channels: 1 Width: 64-bit Data Rate: 3205 MT/s
Heartbeat CPU 0 instructions: 10000002 cycles: 3234004 heartbeat IPC: 3.092 cumulative IPC: 3.092 (Simulation time: 00 hr 00 min 40 sec)
Warmup finished CPU 0 instructions: 20000000 cycles: 6466835 cumulative IPC: 3.093 (Simulation time: 00 hr 01 min 22 sec)
Warmup complete CPU 0 instructions: 20000000 cycles: 6466835 cumulative IPC: 3.093 (Simulation time: 00 hr 01 min 22 sec)
Heartbeat CPU 0 instructions: 20000005 cycles: 6466836 heartbeat IPC: 3.093 cumulative IPC: 5 (Simulation time: 00 hr 01 min 22 sec)
Heartbeat CPU 0 instructions: 30000006 cycles: 25529153 heartbeat IPC: 0.5246 cumulative IPC: 0.5246 (Simulation time: 00 hr 03 min 31 sec)
Heartbeat CPU 0 instructions: 40000006 cycles: 52431506 heartbeat IPC: 0.3717 cumulative IPC: 0.4351 (Simulation time: 00 hr 06 min 12 sec)
Heartbeat CPU 0 instructions: 50000008 cycles: 72336547 heartbeat IPC: 0.5024 cumulative IPC: 0.4554 (Simulation time: 00 hr 08 min 38 sec)
Heartbeat CPU 0 instructions: 60000008 cycles: 87011650 heartbeat IPC: 0.6814 cumulative IPC: 0.4966 (Simulation time: 00 hr 10 min 54 sec)
Heartbeat CPU 0 instructions: 70000010 cycles: 100357843 heartbeat IPC: 0.7493 cumulative IPC: 0.5325 (Simulation time: 00 hr 12 min 27 sec)
Heartbeat CPU 0 instructions: 80000012 cycles: 113630248 heartbeat IPC: 0.7534 cumulative IPC: 0.5599 (Simulation time: 00 hr 14 min 06 sec)
Heartbeat CPU 0 instructions: 90000012 cycles: 124560819 heartbeat IPC: 0.9149 cumulative IPC: 0.5927 (Simulation time: 00 hr 15 min 33 sec)
Heartbeat CPU 0 instructions: 100000015 cycles: 134693338 heartbeat IPC: 0.9869 cumulative IPC: 0.6239 (Simulation time: 00 hr 16 min 55 sec)
Heartbeat CPU 0 instructions: 110000015 cycles: 146142744 heartbeat IPC: 0.8734 cumulative IPC: 0.6443 (Simulation time: 00 hr 18 min 24 sec)
Simulation finished CPU 0 instructions: 100000002 cycles: 152952134 cumulative IPC: 0.6538 (Simulation time: 00 hr 20 min 04 sec)
Simulation complete CPU 0 instructions: 100000002 cycles: 152952134 cumulative IPC: 0.6538 (Simulation time: 00 hr 20 min 04 sec)

ChampSim completed all CPUs

=== Simulation ===
CPU 0 runs /home/ho/prefetch_aware_insertion_ptr/traces/spec2k17/462.libquantum-1343B.champsimtrace.xz

Region of Interest Statistics

CPU 0 cumulative IPC: 0.6538 instructions: 100000002 cycles: 152952134
CPU 0 Branch Prediction Accuracy: 95.49% MPKI: 8.165 Average ROB Occupancy at Mispredict: 28.74
Branch type MPKI
BRANCH_DIRECT_JUMP: 1e-05
BRANCH_INDIRECT: 2e-05
BRANCH_CONDITIONAL: 8.165
BRANCH_DIRECT_CALL: 0.00011
BRANCH_INDIRECT_CALL: 0
BRANCH_RETURN: 0.00011


====Backend Stall Breakdown====
ROB_STALL: 45013359
LQ_STALL: 16
SQ_STALL: 0


====ROB Stall Breakdown====

== Average ==
ADDR_TRANS: 70.886536
REPLAY_LOAD: 147.2028
NON_REPLAY_LOAD: 66.13431

== Total ==
ADDR_TRANS: 1263836
REPLAY_LOAD: 3284389
NON_REPLAY_LOAD: 40465134

== Counts ==
ADDR_TRANS: 17829
REPLAY_LOAD: 22312
NON_REPLAY_LOAD: 611863

cpu0->cpu0_STLB TOTAL        ACCESS:      39501 HIT:          0 MISS:      39501 MSHR_MERGE:          0
cpu0->cpu0_STLB LOAD         ACCESS:      39501 HIT:          0 MISS:      39501 MSHR_MERGE:          0
cpu0->cpu0_STLB RFO          ACCESS:          0 HIT:          0 MISS:          0 MSHR_MERGE:          0
cpu0->cpu0_STLB PREFETCH     ACCESS:          0 HIT:          0 MISS:          0 MSHR_MERGE:          0
cpu0->cpu0_STLB WRITE        ACCESS:          0 HIT:          0 MISS:          0 MSHR_MERGE:          0
cpu0->cpu0_STLB TRANSLATION  ACCESS:          0 HIT:          0 MISS:          0 MSHR_MERGE:          0
cpu0->cpu0_STLB PREFETCH REQUESTED:          0 ISSUED:          0 USEFUL:          0 USELESS:          0
cpu0->cpu0_STLB AVERAGE MISS LATENCY: 210.6 cycles
cpu0->cpu0_L2C TOTAL        ACCESS:    3575922 HIT:    1003961 MISS:    2571961 MSHR_MERGE:          0
cpu0->cpu0_L2C LOAD         ACCESS:    2527499 HIT:          0 MISS:    2527499 MSHR_MERGE:          0
cpu0->cpu0_L2C RFO          ACCESS:         18 HIT:          0 MISS:         18 MSHR_MERGE:          0
cpu0->cpu0_L2C PREFETCH     ACCESS:          0 HIT:          0 MISS:          0 MSHR_MERGE:          0
cpu0->cpu0_L2C WRITE        ACCESS:    1003961 HIT:    1003961 MISS:          0 MSHR_MERGE:          0
cpu0->cpu0_L2C TRANSLATION  ACCESS:      44444 HIT:          0 MISS:      44444 MSHR_MERGE:          0
cpu0->cpu0_L2C PREFETCH REQUESTED:          0 ISSUED:          0 USEFUL:          0 USELESS:          0
cpu0->cpu0_L2C AVERAGE MISS LATENCY: 144.5 cycles
cpu0->cpu0_L1I TOTAL        ACCESS:   10155316 HIT:   10155303 MISS:         13 MSHR_MERGE:          1
cpu0->cpu0_L1I LOAD         ACCESS:   10155316 HIT:   10155303 MISS:         13 MSHR_MERGE:          1
cpu0->cpu0_L1I RFO          ACCESS:          0 HIT:          0 MISS:          0 MSHR_MERGE:          0
cpu0->cpu0_L1I PREFETCH     ACCESS:          0 HIT:          0 MISS:          0 MSHR_MERGE:          0
cpu0->cpu0_L1I WRITE        ACCESS:          0 HIT:          0 MISS:          0 MSHR_MERGE:          0
cpu0->cpu0_L1I TRANSLATION  ACCESS:          0 HIT:          0 MISS:          0 MSHR_MERGE:          0
cpu0->cpu0_L1I PREFETCH REQUESTED:          0 ISSUED:          0 USEFUL:          0 USELESS:          0
cpu0->cpu0_L1I AVERAGE MISS LATENCY: 162.8 cycles
cpu0->cpu0_L1D TOTAL        ACCESS:   25509842 HIT:   17531411 MISS:    7978431 MSHR_MERGE:    5406481
cpu0->cpu0_L1D LOAD         ACCESS:   22646740 HIT:   14712804 MISS:    7933936 MSHR_MERGE:    5406448
cpu0->cpu0_L1D RFO          ACCESS:          0 HIT:          0 MISS:          0 MSHR_MERGE:          0
cpu0->cpu0_L1D PREFETCH     ACCESS:          0 HIT:          0 MISS:          0 MSHR_MERGE:          0
cpu0->cpu0_L1D WRITE        ACCESS:    2784099 HIT:    2784048 MISS:         51 MSHR_MERGE:         33
cpu0->cpu0_L1D TRANSLATION  ACCESS:      79003 HIT:      34559 MISS:      44444 MSHR_MERGE:          0
cpu0->cpu0_L1D PREFETCH REQUESTED:          0 ISSUED:          0 USEFUL:          0 USELESS:          0
cpu0->cpu0_L1D AVERAGE MISS LATENCY: 157.4 cycles
cpu0->cpu0_ITLB TOTAL        ACCESS:    7446989 HIT:    7446989 MISS:          0 MSHR_MERGE:          0
cpu0->cpu0_ITLB LOAD         ACCESS:    7446989 HIT:    7446989 MISS:          0 MSHR_MERGE:          0
cpu0->cpu0_ITLB RFO          ACCESS:          0 HIT:          0 MISS:          0 MSHR_MERGE:          0
cpu0->cpu0_ITLB PREFETCH     ACCESS:          0 HIT:          0 MISS:          0 MSHR_MERGE:          0
cpu0->cpu0_ITLB WRITE        ACCESS:          0 HIT:          0 MISS:          0 MSHR_MERGE:          0
cpu0->cpu0_ITLB TRANSLATION  ACCESS:          0 HIT:          0 MISS:          0 MSHR_MERGE:          0
cpu0->cpu0_ITLB PREFETCH REQUESTED:          0 ISSUED:          0 USEFUL:          0 USELESS:          0
cpu0->cpu0_ITLB AVERAGE MISS LATENCY: - cycles
cpu0->cpu0_DTLB TOTAL        ACCESS:   24347684 HIT:   23916074 MISS:     431610 MSHR_MERGE:     392109
cpu0->cpu0_DTLB LOAD         ACCESS:   24347684 HIT:   23916074 MISS:     431610 MSHR_MERGE:     392109
cpu0->cpu0_DTLB RFO          ACCESS:          0 HIT:          0 MISS:          0 MSHR_MERGE:          0
cpu0->cpu0_DTLB PREFETCH     ACCESS:          0 HIT:          0 MISS:          0 MSHR_MERGE:          0
cpu0->cpu0_DTLB WRITE        ACCESS:          0 HIT:          0 MISS:          0 MSHR_MERGE:          0
cpu0->cpu0_DTLB TRANSLATION  ACCESS:          0 HIT:          0 MISS:          0 MSHR_MERGE:          0
cpu0->cpu0_DTLB PREFETCH REQUESTED:          0 ISSUED:          0 USEFUL:          0 USELESS:          0
cpu0->cpu0_DTLB AVERAGE MISS LATENCY: 216.6 cycles
cpu0->LLC TOTAL        ACCESS:    3575140 HIT:    1003180 MISS:    2571960 MSHR_MERGE:          0
cpu0->LLC LOAD         ACCESS:    2527498 HIT:          0 MISS:    2527498 MSHR_MERGE:          0
cpu0->LLC RFO          ACCESS:         18 HIT:          0 MISS:         18 MSHR_MERGE:          0
cpu0->LLC PREFETCH     ACCESS:          0 HIT:          0 MISS:          0 MSHR_MERGE:          0
cpu0->LLC WRITE        ACCESS:    1003180 HIT:    1003180 MISS:          0 MSHR_MERGE:          0
cpu0->LLC TRANSLATION  ACCESS:      44444 HIT:          0 MISS:      44444 MSHR_MERGE:          0
cpu0->LLC PREFETCH REQUESTED:          0 ISSUED:          0 USEFUL:          0 USELESS:          0
cpu0->LLC AVERAGE MISS LATENCY: 113.8 cycles

DRAM Statistics

Channel 0 RQ ROW_BUFFER_HIT:     430830
  ROW_BUFFER_MISS:    2141130
  AVG DBUS CONGESTED CYCLE: 5.029
Channel 0 WQ ROW_BUFFER_HIT:     150598
  ROW_BUFFER_MISS:     850048
  FULL:          0
Channel 0 REFRESHES ISSUED:      12746
[2025-09-15 19:02:42] END   suite=spec trace=462.libquantum-1343B (rc=0)
