[2025-09-15 17:17:45] START suite=spec trace=464.h264ref-57B
CMD: ./bin/champsim -w 20000000 -i 100000000 /home/ho/prefetch_aware_insertion_ptr/traces/spec2k17/464.h264ref-57B.champsimtrace.xz
[VMEM] WARNING: physical memory size is smaller than virtual memory size.

*** ChampSim Multicore Out-of-Order Simulator ***
Warmup Instructions: 20000000
Simulation Instructions: 100000000
Number of CPUs: 1
Page size: 4096

Off-chip DRAM Size: 16 GiB Channels: 1 Width: 64-bit Data Rate: 3205 MT/s
Heartbeat CPU 0 instructions: 10000000 cycles: 2703518 heartbeat IPC: 3.699 cumulative IPC: 3.699 (Simulation time: 00 hr 00 min 39 sec)
Heartbeat CPU 0 instructions: 20000003 cycles: 4945131 heartbeat IPC: 4.461 cumulative IPC: 4.044 (Simulation time: 00 hr 01 min 10 sec)
Warmup finished CPU 0 instructions: 20000003 cycles: 4945131 cumulative IPC: 4.044 (Simulation time: 00 hr 01 min 10 sec)
Warmup complete CPU 0 instructions: 20000003 cycles: 4945131 cumulative IPC: 4.044 (Simulation time: 00 hr 01 min 10 sec)
Heartbeat CPU 0 instructions: 30000007 cycles: 10890185 heartbeat IPC: 1.682 cumulative IPC: 1.682 (Simulation time: 00 hr 02 min 04 sec)
Heartbeat CPU 0 instructions: 40000009 cycles: 14546904 heartbeat IPC: 2.735 cumulative IPC: 2.083 (Simulation time: 00 hr 02 min 46 sec)
Heartbeat CPU 0 instructions: 50000011 cycles: 18225235 heartbeat IPC: 2.719 cumulative IPC: 2.259 (Simulation time: 00 hr 03 min 31 sec)
Heartbeat CPU 0 instructions: 60000012 cycles: 22700612 heartbeat IPC: 2.234 cumulative IPC: 2.253 (Simulation time: 00 hr 04 min 15 sec)
Heartbeat CPU 0 instructions: 70000016 cycles: 28588942 heartbeat IPC: 1.698 cumulative IPC: 2.115 (Simulation time: 00 hr 05 min 07 sec)
Heartbeat CPU 0 instructions: 80000020 cycles: 32472527 heartbeat IPC: 2.575 cumulative IPC: 2.18 (Simulation time: 00 hr 05 min 51 sec)
Heartbeat CPU 0 instructions: 90000020 cycles: 36071215 heartbeat IPC: 2.779 cumulative IPC: 2.249 (Simulation time: 00 hr 06 min 34 sec)
Heartbeat CPU 0 instructions: 100000024 cycles: 40116621 heartbeat IPC: 2.472 cumulative IPC: 2.275 (Simulation time: 00 hr 07 min 18 sec)
Heartbeat CPU 0 instructions: 110000028 cycles: 46152204 heartbeat IPC: 1.657 cumulative IPC: 2.184 (Simulation time: 00 hr 08 min 10 sec)
Simulation finished CPU 0 instructions: 100000002 cycles: 45575567 cumulative IPC: 2.194 (Simulation time: 00 hr 08 min 57 sec)
Simulation complete CPU 0 instructions: 100000002 cycles: 45575567 cumulative IPC: 2.194 (Simulation time: 00 hr 08 min 57 sec)

ChampSim completed all CPUs

=== Simulation ===
CPU 0 runs /home/ho/prefetch_aware_insertion_ptr/traces/spec2k17/464.h264ref-57B.champsimtrace.xz

Region of Interest Statistics

CPU 0 cumulative IPC: 2.194 instructions: 100000002 cycles: 45575567
CPU 0 Branch Prediction Accuracy: 94.41% MPKI: 4.98 Average ROB Occupancy at Mispredict: 122.6
Branch type MPKI
BRANCH_DIRECT_JUMP: 0.0181
BRANCH_INDIRECT: 0.00233
BRANCH_CONDITIONAL: 4.938
BRANCH_DIRECT_CALL: 0.01776
BRANCH_INDIRECT_CALL: 0.00089
BRANCH_RETURN: 0.00283


====Backend Stall Breakdown====
ROB_STALL: 1633327
LQ_STALL: 317462
SQ_STALL: 47733


====ROB Stall Breakdown====

== Average ==
ADDR_TRANS: 354.1223
REPLAY_LOAD: 90.76974
NON_REPLAY_LOAD: 8.336423

== Total ==
ADDR_TRANS: 49223
REPLAY_LOAD: 13797
NON_REPLAY_LOAD: 1570307

== Counts ==
ADDR_TRANS: 139
REPLAY_LOAD: 152
NON_REPLAY_LOAD: 188367

cpu0->cpu0_STLB TOTAL        ACCESS:      29106 HIT:      28274 MISS:        832 MSHR_MERGE:          0
cpu0->cpu0_STLB LOAD         ACCESS:      29106 HIT:      28274 MISS:        832 MSHR_MERGE:          0
cpu0->cpu0_STLB RFO          ACCESS:          0 HIT:          0 MISS:          0 MSHR_MERGE:          0
cpu0->cpu0_STLB PREFETCH     ACCESS:          0 HIT:          0 MISS:          0 MSHR_MERGE:          0
cpu0->cpu0_STLB WRITE        ACCESS:          0 HIT:          0 MISS:          0 MSHR_MERGE:          0
cpu0->cpu0_STLB TRANSLATION  ACCESS:          0 HIT:          0 MISS:          0 MSHR_MERGE:          0
cpu0->cpu0_STLB PREFETCH REQUESTED:          0 ISSUED:          0 USEFUL:          0 USELESS:          0
cpu0->cpu0_STLB AVERAGE MISS LATENCY: 421.2 cycles
cpu0->cpu0_L2C TOTAL        ACCESS:     362232 HIT:     199342 MISS:     162890 MSHR_MERGE:          0
cpu0->cpu0_L2C LOAD         ACCESS:     208181 HIT:     115847 MISS:      92334 MSHR_MERGE:          0
cpu0->cpu0_L2C RFO          ACCESS:      75682 HIT:       6571 MISS:      69111 MSHR_MERGE:          0
cpu0->cpu0_L2C PREFETCH     ACCESS:          0 HIT:          0 MISS:          0 MSHR_MERGE:          0
cpu0->cpu0_L2C WRITE        ACCESS:      77020 HIT:      76896 MISS:        124 MSHR_MERGE:          0
cpu0->cpu0_L2C TRANSLATION  ACCESS:       1349 HIT:         28 MISS:       1321 MSHR_MERGE:          0
cpu0->cpu0_L2C PREFETCH REQUESTED:          0 ISSUED:          0 USEFUL:          0 USELESS:          0
cpu0->cpu0_L2C AVERAGE MISS LATENCY: 69.83 cycles
cpu0->cpu0_L1I TOTAL        ACCESS:    9172015 HIT:    9155306 MISS:      16709 MSHR_MERGE:       6509
cpu0->cpu0_L1I LOAD         ACCESS:    9172015 HIT:    9155306 MISS:      16709 MSHR_MERGE:       6509
cpu0->cpu0_L1I RFO          ACCESS:          0 HIT:          0 MISS:          0 MSHR_MERGE:          0
cpu0->cpu0_L1I PREFETCH     ACCESS:          0 HIT:          0 MISS:          0 MSHR_MERGE:          0
cpu0->cpu0_L1I WRITE        ACCESS:          0 HIT:          0 MISS:          0 MSHR_MERGE:          0
cpu0->cpu0_L1I TRANSLATION  ACCESS:          0 HIT:          0 MISS:          0 MSHR_MERGE:          0
cpu0->cpu0_L1I PREFETCH REQUESTED:          0 ISSUED:          0 USEFUL:          0 USELESS:          0
cpu0->cpu0_L1I AVERAGE MISS LATENCY: 52.37 cycles
cpu0->cpu0_L1D TOTAL        ACCESS:   30022448 HIT:   28382351 MISS:    1640097 MSHR_MERGE:    1365082
cpu0->cpu0_L1D LOAD         ACCESS:   22428023 HIT:   21473583 MISS:     954440 MSHR_MERGE:     756458
cpu0->cpu0_L1D RFO          ACCESS:          0 HIT:          0 MISS:          0 MSHR_MERGE:          0
cpu0->cpu0_L1D PREFETCH     ACCESS:          0 HIT:          0 MISS:          0 MSHR_MERGE:          0
cpu0->cpu0_L1D WRITE        ACCESS:    7592770 HIT:    6908513 MISS:     684257 MSHR_MERGE:     608573
cpu0->cpu0_L1D TRANSLATION  ACCESS:       1655 HIT:        255 MISS:       1400 MSHR_MERGE:         51
cpu0->cpu0_L1D PREFETCH REQUESTED:          0 ISSUED:          0 USEFUL:          0 USELESS:          0
cpu0->cpu0_L1D AVERAGE MISS LATENCY: 52.44 cycles
cpu0->cpu0_ITLB TOTAL        ACCESS:    7561894 HIT:    7561805 MISS:         89 MSHR_MERGE:         53
cpu0->cpu0_ITLB LOAD         ACCESS:    7561894 HIT:    7561805 MISS:         89 MSHR_MERGE:         53
cpu0->cpu0_ITLB RFO          ACCESS:          0 HIT:          0 MISS:          0 MSHR_MERGE:          0
cpu0->cpu0_ITLB PREFETCH     ACCESS:          0 HIT:          0 MISS:          0 MSHR_MERGE:          0
cpu0->cpu0_ITLB WRITE        ACCESS:          0 HIT:          0 MISS:          0 MSHR_MERGE:          0
cpu0->cpu0_ITLB TRANSLATION  ACCESS:          0 HIT:          0 MISS:          0 MSHR_MERGE:          0
cpu0->cpu0_ITLB PREFETCH REQUESTED:          0 ISSUED:          0 USEFUL:          0 USELESS:          0
cpu0->cpu0_ITLB AVERAGE MISS LATENCY: 430.2 cycles
cpu0->cpu0_DTLB TOTAL        ACCESS:   28770269 HIT:   28721944 MISS:      48325 MSHR_MERGE:      19255
cpu0->cpu0_DTLB LOAD         ACCESS:   28770269 HIT:   28721944 MISS:      48325 MSHR_MERGE:      19255
cpu0->cpu0_DTLB RFO          ACCESS:          0 HIT:          0 MISS:          0 MSHR_MERGE:          0
cpu0->cpu0_DTLB PREFETCH     ACCESS:          0 HIT:          0 MISS:          0 MSHR_MERGE:          0
cpu0->cpu0_DTLB WRITE        ACCESS:          0 HIT:          0 MISS:          0 MSHR_MERGE:          0
cpu0->cpu0_DTLB TRANSLATION  ACCESS:          0 HIT:          0 MISS:          0 MSHR_MERGE:          0
cpu0->cpu0_DTLB PREFETCH REQUESTED:          0 ISSUED:          0 USEFUL:          0 USELESS:          0
cpu0->cpu0_DTLB AVERAGE MISS LATENCY: 16.56 cycles
cpu0->LLC TOTAL        ACCESS:     226624 HIT:     157019 MISS:      69605 MSHR_MERGE:          0
cpu0->LLC LOAD         ACCESS:      92334 HIT:      52142 MISS:      40192 MSHR_MERGE:          0
cpu0->LLC RFO          ACCESS:      69111 HIT:      41064 MISS:      28047 MSHR_MERGE:          0
cpu0->LLC PREFETCH     ACCESS:          0 HIT:          0 MISS:          0 MSHR_MERGE:          0
cpu0->LLC WRITE        ACCESS:      63858 HIT:      63675 MISS:        183 MSHR_MERGE:          0
cpu0->LLC TRANSLATION  ACCESS:       1321 HIT:        138 MISS:       1183 MSHR_MERGE:          0
cpu0->LLC PREFETCH REQUESTED:          0 ISSUED:          0 USEFUL:          0 USELESS:          0
cpu0->LLC AVERAGE MISS LATENCY: 92.43 cycles

DRAM Statistics

Channel 0 RQ ROW_BUFFER_HIT:       4935
  ROW_BUFFER_MISS:      64475
  AVG DBUS CONGESTED CYCLE: 6.383
Channel 0 WQ ROW_BUFFER_HIT:       4727
  ROW_BUFFER_MISS:      33071
  FULL:          0
Channel 0 REFRESHES ISSUED:       3798
[2025-09-15 17:26:43] END   suite=spec trace=464.h264ref-57B (rc=0)
