[2025-09-15 16:47:15] START suite=spec trace=464.h264ref-30B
CMD: ./bin/champsim -w 20000000 -i 100000000 /home/ho/prefetch_aware_insertion_ptr/traces/spec2k17/464.h264ref-30B.champsimtrace.xz
[VMEM] WARNING: physical memory size is smaller than virtual memory size.

*** ChampSim Multicore Out-of-Order Simulator ***
Warmup Instructions: 20000000
Simulation Instructions: 100000000
Number of CPUs: 1
Page size: 4096

Off-chip DRAM Size: 16 GiB Channels: 1 Width: 64-bit Data Rate: 3205 MT/s
Heartbeat CPU 0 instructions: 10000004 cycles: 2753132 heartbeat IPC: 3.632 cumulative IPC: 3.632 (Simulation time: 00 hr 00 min 38 sec)
Warmup finished CPU 0 instructions: 20000001 cycles: 5511488 cumulative IPC: 3.629 (Simulation time: 00 hr 01 min 18 sec)
Warmup complete CPU 0 instructions: 20000001 cycles: 5511488 cumulative IPC: 3.629 (Simulation time: 00 hr 01 min 18 sec)
Heartbeat CPU 0 instructions: 20000006 cycles: 5511489 heartbeat IPC: 3.625 cumulative IPC: 5 (Simulation time: 00 hr 01 min 18 sec)
Heartbeat CPU 0 instructions: 30000007 cycles: 10196876 heartbeat IPC: 2.134 cumulative IPC: 2.134 (Simulation time: 00 hr 02 min 01 sec)
Heartbeat CPU 0 instructions: 40000007 cycles: 16111803 heartbeat IPC: 1.691 cumulative IPC: 1.887 (Simulation time: 00 hr 02 min 52 sec)
Heartbeat CPU 0 instructions: 50000009 cycles: 19805320 heartbeat IPC: 2.707 cumulative IPC: 2.099 (Simulation time: 00 hr 03 min 33 sec)
Heartbeat CPU 0 instructions: 60000011 cycles: 23284666 heartbeat IPC: 2.874 cumulative IPC: 2.251 (Simulation time: 00 hr 04 min 13 sec)
Heartbeat CPU 0 instructions: 70000015 cycles: 26762251 heartbeat IPC: 2.876 cumulative IPC: 2.353 (Simulation time: 00 hr 04 min 54 sec)
Heartbeat CPU 0 instructions: 80000016 cycles: 30475789 heartbeat IPC: 2.693 cumulative IPC: 2.403 (Simulation time: 00 hr 05 min 35 sec)
Heartbeat CPU 0 instructions: 90000018 cycles: 36035588 heartbeat IPC: 1.799 cumulative IPC: 2.293 (Simulation time: 00 hr 06 min 28 sec)
Heartbeat CPU 0 instructions: 100000021 cycles: 40006410 heartbeat IPC: 2.518 cumulative IPC: 2.319 (Simulation time: 00 hr 07 min 11 sec)
Heartbeat CPU 0 instructions: 110000022 cycles: 43459812 heartbeat IPC: 2.896 cumulative IPC: 2.372 (Simulation time: 00 hr 07 min 52 sec)
Simulation finished CPU 0 instructions: 100000004 cycles: 41406283 cumulative IPC: 2.415 (Simulation time: 00 hr 08 min 33 sec)
Simulation complete CPU 0 instructions: 100000004 cycles: 41406283 cumulative IPC: 2.415 (Simulation time: 00 hr 08 min 33 sec)

ChampSim completed all CPUs

=== Simulation ===
CPU 0 runs /home/ho/prefetch_aware_insertion_ptr/traces/spec2k17/464.h264ref-30B.champsimtrace.xz

Region of Interest Statistics

CPU 0 cumulative IPC: 2.415 instructions: 100000004 cycles: 41406283
CPU 0 Branch Prediction Accuracy: 93.86% MPKI: 6.687 Average ROB Occupancy at Mispredict: 108.3
Branch type MPKI
BRANCH_DIRECT_JUMP: 0.0142
BRANCH_INDIRECT: 0.00145
BRANCH_CONDITIONAL: 6.553
BRANCH_DIRECT_CALL: 0.115
BRANCH_INDIRECT_CALL: 0.00104
BRANCH_RETURN: 0.00305


====Backend Stall Breakdown====
ROB_STALL: 1411303
LQ_STALL: 169990
SQ_STALL: 38678


====ROB Stall Breakdown====

== Average ==
ADDR_TRANS: 510.34784
REPLAY_LOAD: 101.70968
NON_REPLAY_LOAD: 9.045199

== Total ==
ADDR_TRANS: 58690
REPLAY_LOAD: 12612
NON_REPLAY_LOAD: 1340001

== Counts ==
ADDR_TRANS: 115
REPLAY_LOAD: 124
NON_REPLAY_LOAD: 148145

cpu0->cpu0_STLB TOTAL        ACCESS:      25563 HIT:      24948 MISS:        615 MSHR_MERGE:          0
cpu0->cpu0_STLB LOAD         ACCESS:      25563 HIT:      24948 MISS:        615 MSHR_MERGE:          0
cpu0->cpu0_STLB RFO          ACCESS:          0 HIT:          0 MISS:          0 MSHR_MERGE:          0
cpu0->cpu0_STLB PREFETCH     ACCESS:          0 HIT:          0 MISS:          0 MSHR_MERGE:          0
cpu0->cpu0_STLB WRITE        ACCESS:          0 HIT:          0 MISS:          0 MSHR_MERGE:          0
cpu0->cpu0_STLB TRANSLATION  ACCESS:          0 HIT:          0 MISS:          0 MSHR_MERGE:          0
cpu0->cpu0_STLB PREFETCH REQUESTED:          0 ISSUED:          0 USEFUL:          0 USELESS:          0
cpu0->cpu0_STLB AVERAGE MISS LATENCY: 531.4 cycles
cpu0->cpu0_L2C TOTAL        ACCESS:     296123 HIT:     163318 MISS:     132805 MSHR_MERGE:          0
cpu0->cpu0_L2C LOAD         ACCESS:     170384 HIT:      95559 MISS:      74825 MSHR_MERGE:          0
cpu0->cpu0_L2C RFO          ACCESS:      61948 HIT:       4994 MISS:      56954 MSHR_MERGE:          0
cpu0->cpu0_L2C PREFETCH     ACCESS:          0 HIT:          0 MISS:          0 MSHR_MERGE:          0
cpu0->cpu0_L2C WRITE        ACCESS:      62835 HIT:      62745 MISS:         90 MSHR_MERGE:          0
cpu0->cpu0_L2C TRANSLATION  ACCESS:        956 HIT:         20 MISS:        936 MSHR_MERGE:          0
cpu0->cpu0_L2C PREFETCH REQUESTED:          0 ISSUED:          0 USEFUL:          0 USELESS:          0
cpu0->cpu0_L2C AVERAGE MISS LATENCY: 64.14 cycles
cpu0->cpu0_L1I TOTAL        ACCESS:    7457693 HIT:    7448173 MISS:       9520 MSHR_MERGE:       3643
cpu0->cpu0_L1I LOAD         ACCESS:    7457693 HIT:    7448173 MISS:       9520 MSHR_MERGE:       3643
cpu0->cpu0_L1I RFO          ACCESS:          0 HIT:          0 MISS:          0 MSHR_MERGE:          0
cpu0->cpu0_L1I PREFETCH     ACCESS:          0 HIT:          0 MISS:          0 MSHR_MERGE:          0
cpu0->cpu0_L1I WRITE        ACCESS:          0 HIT:          0 MISS:          0 MSHR_MERGE:          0
cpu0->cpu0_L1I TRANSLATION  ACCESS:          0 HIT:          0 MISS:          0 MSHR_MERGE:          0
cpu0->cpu0_L1I PREFETCH REQUESTED:          0 ISSUED:          0 USEFUL:          0 USELESS:          0
cpu0->cpu0_L1I AVERAGE MISS LATENCY: 66.78 cycles
cpu0->cpu0_L1D TOTAL        ACCESS:   27944633 HIT:   26521048 MISS:    1423585 MSHR_MERGE:    1196174
cpu0->cpu0_L1D LOAD         ACCESS:   19662238 HIT:   18801909 MISS:     860329 MSHR_MERGE:     695822
cpu0->cpu0_L1D RFO          ACCESS:          0 HIT:          0 MISS:          0 MSHR_MERGE:          0
cpu0->cpu0_L1D PREFETCH     ACCESS:          0 HIT:          0 MISS:          0 MSHR_MERGE:          0
cpu0->cpu0_L1D WRITE        ACCESS:    8281167 HIT:    7718902 MISS:     562265 MSHR_MERGE:     500317
cpu0->cpu0_L1D TRANSLATION  ACCESS:       1228 HIT:        237 MISS:        991 MSHR_MERGE:         35
cpu0->cpu0_L1D PREFETCH REQUESTED:          0 ISSUED:          0 USEFUL:          0 USELESS:          0
cpu0->cpu0_L1D AVERAGE MISS LATENCY: 48.63 cycles
cpu0->cpu0_ITLB TOTAL        ACCESS:    6381966 HIT:    6381851 MISS:        115 MSHR_MERGE:         63
cpu0->cpu0_ITLB LOAD         ACCESS:    6381966 HIT:    6381851 MISS:        115 MSHR_MERGE:         63
cpu0->cpu0_ITLB RFO          ACCESS:          0 HIT:          0 MISS:          0 MSHR_MERGE:          0
cpu0->cpu0_ITLB PREFETCH     ACCESS:          0 HIT:          0 MISS:          0 MSHR_MERGE:          0
cpu0->cpu0_ITLB WRITE        ACCESS:          0 HIT:          0 MISS:          0 MSHR_MERGE:          0
cpu0->cpu0_ITLB TRANSLATION  ACCESS:          0 HIT:          0 MISS:          0 MSHR_MERGE:          0
cpu0->cpu0_ITLB PREFETCH REQUESTED:          0 ISSUED:          0 USEFUL:          0 USELESS:          0
cpu0->cpu0_ITLB AVERAGE MISS LATENCY: 584.2 cycles
cpu0->cpu0_DTLB TOTAL        ACCESS:   26851903 HIT:   26810313 MISS:      41590 MSHR_MERGE:      16079
cpu0->cpu0_DTLB LOAD         ACCESS:   26851903 HIT:   26810313 MISS:      41590 MSHR_MERGE:      16079
cpu0->cpu0_DTLB RFO          ACCESS:          0 HIT:          0 MISS:          0 MSHR_MERGE:          0
cpu0->cpu0_DTLB PREFETCH     ACCESS:          0 HIT:          0 MISS:          0 MSHR_MERGE:          0
cpu0->cpu0_DTLB WRITE        ACCESS:          0 HIT:          0 MISS:          0 MSHR_MERGE:          0
cpu0->cpu0_DTLB TRANSLATION  ACCESS:          0 HIT:          0 MISS:          0 MSHR_MERGE:          0
cpu0->cpu0_DTLB PREFETCH REQUESTED:          0 ISSUED:          0 USEFUL:          0 USELESS:          0
cpu0->cpu0_DTLB AVERAGE MISS LATENCY: 16.65 cycles
cpu0->LLC TOTAL        ACCESS:     190303 HIT:     142131 MISS:      48172 MSHR_MERGE:          0
cpu0->LLC LOAD         ACCESS:      74825 HIT:      49031 MISS:      25794 MSHR_MERGE:          0
cpu0->LLC RFO          ACCESS:      56954 HIT:      35604 MISS:      21350 MSHR_MERGE:          0
cpu0->LLC PREFETCH     ACCESS:          0 HIT:          0 MISS:          0 MSHR_MERGE:          0
cpu0->LLC WRITE        ACCESS:      57588 HIT:      57459 MISS:        129 MSHR_MERGE:          0
cpu0->LLC TRANSLATION  ACCESS:        936 HIT:         37 MISS:        899 MSHR_MERGE:          0
cpu0->LLC PREFETCH REQUESTED:          0 ISSUED:          0 USEFUL:          0 USELESS:          0
cpu0->LLC AVERAGE MISS LATENCY: 93.36 cycles

DRAM Statistics

Channel 0 RQ ROW_BUFFER_HIT:       2829
  ROW_BUFFER_MISS:      45194
  AVG DBUS CONGESTED CYCLE: 6.461
Channel 0 WQ ROW_BUFFER_HIT:       4288
  ROW_BUFFER_MISS:      25926
  FULL:          0
Channel 0 REFRESHES ISSUED:       3450
[2025-09-15 16:55:49] END   suite=spec trace=464.h264ref-30B (rc=0)
