[2025-09-15 16:16:33] START suite=spec trace=471.omnetpp-188B
CMD: ./bin/champsim -w 20000000 -i 100000000 /home/ho/prefetch_aware_insertion_ptr/traces/spec2k17/471.omnetpp-188B.champsimtrace.xz
[VMEM] WARNING: physical memory size is smaller than virtual memory size.

*** ChampSim Multicore Out-of-Order Simulator ***
Warmup Instructions: 20000000
Simulation Instructions: 100000000
Number of CPUs: 1
Page size: 4096

Off-chip DRAM Size: 16 GiB Channels: 1 Width: 64-bit Data Rate: 3205 MT/s
Heartbeat CPU 0 instructions: 10000004 cycles: 5345782 heartbeat IPC: 1.871 cumulative IPC: 1.871 (Simulation time: 00 hr 01 min 05 sec)
Heartbeat CPU 0 instructions: 20000004 cycles: 9382699 heartbeat IPC: 2.477 cumulative IPC: 2.132 (Simulation time: 00 hr 01 min 58 sec)
Warmup finished CPU 0 instructions: 20000004 cycles: 9382699 cumulative IPC: 2.132 (Simulation time: 00 hr 01 min 58 sec)
Warmup complete CPU 0 instructions: 20000004 cycles: 9382699 cumulative IPC: 2.132 (Simulation time: 00 hr 01 min 58 sec)
Heartbeat CPU 0 instructions: 30000004 cycles: 39700523 heartbeat IPC: 0.3298 cumulative IPC: 0.3298 (Simulation time: 00 hr 05 min 02 sec)
Heartbeat CPU 0 instructions: 40000004 cycles: 65336792 heartbeat IPC: 0.3901 cumulative IPC: 0.3574 (Simulation time: 00 hr 07 min 46 sec)
Heartbeat CPU 0 instructions: 50000005 cycles: 94925112 heartbeat IPC: 0.338 cumulative IPC: 0.3507 (Simulation time: 00 hr 10 min 47 sec)
Heartbeat CPU 0 instructions: 60000006 cycles: 123360620 heartbeat IPC: 0.3517 cumulative IPC: 0.3509 (Simulation time: 00 hr 13 min 29 sec)
Heartbeat CPU 0 instructions: 70000006 cycles: 149269493 heartbeat IPC: 0.386 cumulative IPC: 0.3574 (Simulation time: 00 hr 16 min 08 sec)
Heartbeat CPU 0 instructions: 80000008 cycles: 178295914 heartbeat IPC: 0.3445 cumulative IPC: 0.3552 (Simulation time: 00 hr 19 min 16 sec)
Heartbeat CPU 0 instructions: 90000009 cycles: 206836418 heartbeat IPC: 0.3504 cumulative IPC: 0.3545 (Simulation time: 00 hr 22 min 11 sec)
Heartbeat CPU 0 instructions: 100000010 cycles: 235540110 heartbeat IPC: 0.3484 cumulative IPC: 0.3537 (Simulation time: 00 hr 25 min 02 sec)
Heartbeat CPU 0 instructions: 110000010 cycles: 263669647 heartbeat IPC: 0.3555 cumulative IPC: 0.3539 (Simulation time: 00 hr 27 min 45 sec)
Simulation finished CPU 0 instructions: 100000000 cycles: 282723980 cumulative IPC: 0.3537 (Simulation time: 00 hr 30 min 42 sec)
Simulation complete CPU 0 instructions: 100000000 cycles: 282723980 cumulative IPC: 0.3537 (Simulation time: 00 hr 30 min 42 sec)

ChampSim completed all CPUs

=== Simulation ===
CPU 0 runs /home/ho/prefetch_aware_insertion_ptr/traces/spec2k17/471.omnetpp-188B.champsimtrace.xz

Region of Interest Statistics

CPU 0 cumulative IPC: 0.3537 instructions: 100000000 cycles: 282723980
CPU 0 Branch Prediction Accuracy: 93.4% MPKI: 15.91 Average ROB Occupancy at Mispredict: 44.76
Branch type MPKI
BRANCH_DIRECT_JUMP: 0.00048
BRANCH_INDIRECT: 0.1107
BRANCH_CONDITIONAL: 15.17
BRANCH_DIRECT_CALL: 0.00011
BRANCH_INDIRECT_CALL: 0.1154
BRANCH_RETURN: 0.5086


====Backend Stall Breakdown====
ROB_STALL: 9095502
LQ_STALL: 0
SQ_STALL: 3849648


====ROB Stall Breakdown====

== Average ==
ADDR_TRANS: 211.53067
REPLAY_LOAD: 87.524376
NON_REPLAY_LOAD: 34.198418

== Total ==
ADDR_TRANS: 4283496
REPLAY_LOAD: 1802477
NON_REPLAY_LOAD: 3009529

== Counts ==
ADDR_TRANS: 20250
REPLAY_LOAD: 20594
NON_REPLAY_LOAD: 88002

cpu0->cpu0_STLB TOTAL        ACCESS:    1992446 HIT:    1541078 MISS:     451368 MSHR_MERGE:          0
cpu0->cpu0_STLB LOAD         ACCESS:    1992446 HIT:    1541078 MISS:     451368 MSHR_MERGE:          0
cpu0->cpu0_STLB RFO          ACCESS:          0 HIT:          0 MISS:          0 MSHR_MERGE:          0
cpu0->cpu0_STLB PREFETCH     ACCESS:          0 HIT:          0 MISS:          0 MSHR_MERGE:          0
cpu0->cpu0_STLB WRITE        ACCESS:          0 HIT:          0 MISS:          0 MSHR_MERGE:          0
cpu0->cpu0_STLB TRANSLATION  ACCESS:          0 HIT:          0 MISS:          0 MSHR_MERGE:          0
cpu0->cpu0_STLB PREFETCH REQUESTED:          0 ISSUED:          0 USEFUL:          0 USELESS:          0
cpu0->cpu0_STLB AVERAGE MISS LATENCY: 240.6 cycles
cpu0->cpu0_L2C TOTAL        ACCESS:    4277710 HIT:    1349443 MISS:    2928267 MSHR_MERGE:          0
cpu0->cpu0_L2C LOAD         ACCESS:    2091141 HIT:     263230 MISS:    1827911 MSHR_MERGE:          0
cpu0->cpu0_L2C RFO          ACCESS:     332442 HIT:      26573 MISS:     305869 MSHR_MERGE:          0
cpu0->cpu0_L2C PREFETCH     ACCESS:          0 HIT:          0 MISS:          0 MSHR_MERGE:          0
cpu0->cpu0_L2C WRITE        ACCESS:    1038508 HIT:    1035897 MISS:       2611 MSHR_MERGE:          0
cpu0->cpu0_L2C TRANSLATION  ACCESS:     815619 HIT:      23743 MISS:     791876 MSHR_MERGE:          0
cpu0->cpu0_L2C PREFETCH REQUESTED:          0 ISSUED:          0 USEFUL:          0 USELESS:          0
cpu0->cpu0_L2C AVERAGE MISS LATENCY: 110.8 cycles
cpu0->cpu0_L1I TOTAL        ACCESS:   11059755 HIT:   11055897 MISS:       3858 MSHR_MERGE:        894
cpu0->cpu0_L1I LOAD         ACCESS:   11059755 HIT:   11055897 MISS:       3858 MSHR_MERGE:        894
cpu0->cpu0_L1I RFO          ACCESS:          0 HIT:          0 MISS:          0 MSHR_MERGE:          0
cpu0->cpu0_L1I PREFETCH     ACCESS:          0 HIT:          0 MISS:          0 MSHR_MERGE:          0
cpu0->cpu0_L1I WRITE        ACCESS:          0 HIT:          0 MISS:          0 MSHR_MERGE:          0
cpu0->cpu0_L1I TRANSLATION  ACCESS:          0 HIT:          0 MISS:          0 MSHR_MERGE:          0
cpu0->cpu0_L1I PREFETCH REQUESTED:          0 ISSUED:          0 USEFUL:          0 USELESS:          0
cpu0->cpu0_L1I AVERAGE MISS LATENCY: 105.9 cycles
cpu0->cpu0_L1D TOTAL        ACCESS:   36707193 HIT:   31398350 MISS:    5308843 MSHR_MERGE:    2072594
cpu0->cpu0_L1D LOAD         ACCESS:   19612423 HIT:   16630971 MISS:    2981452 MSHR_MERGE:     893266
cpu0->cpu0_L1D RFO          ACCESS:          0 HIT:          0 MISS:          0 MSHR_MERGE:          0
cpu0->cpu0_L1D PREFETCH     ACCESS:          0 HIT:          0 MISS:          0 MSHR_MERGE:          0
cpu0->cpu0_L1D WRITE        ACCESS:   16175181 HIT:   14673190 MISS:    1501991 MSHR_MERGE:    1169547
cpu0->cpu0_L1D TRANSLATION  ACCESS:     919589 HIT:      94189 MISS:     825400 MSHR_MERGE:       9781
cpu0->cpu0_L1D PREFETCH REQUESTED:          0 ISSUED:          0 USEFUL:          0 USELESS:          0
cpu0->cpu0_L1D AVERAGE MISS LATENCY: 112.1 cycles
cpu0->cpu0_ITLB TOTAL        ACCESS:    9500453 HIT:    9405200 MISS:      95253 MSHR_MERGE:      52652
cpu0->cpu0_ITLB LOAD         ACCESS:    9500453 HIT:    9405200 MISS:      95253 MSHR_MERGE:      52652
cpu0->cpu0_ITLB RFO          ACCESS:          0 HIT:          0 MISS:          0 MSHR_MERGE:          0
cpu0->cpu0_ITLB PREFETCH     ACCESS:          0 HIT:          0 MISS:          0 MSHR_MERGE:          0
cpu0->cpu0_ITLB WRITE        ACCESS:          0 HIT:          0 MISS:          0 MSHR_MERGE:          0
cpu0->cpu0_ITLB TRANSLATION  ACCESS:          0 HIT:          0 MISS:          0 MSHR_MERGE:          0
cpu0->cpu0_ITLB PREFETCH REQUESTED:          0 ISSUED:          0 USEFUL:          0 USELESS:          0
cpu0->cpu0_ITLB AVERAGE MISS LATENCY: 8.53 cycles
cpu0->cpu0_DTLB TOTAL        ACCESS:   34637440 HIT:   31893533 MISS:    2743907 MSHR_MERGE:     794062
cpu0->cpu0_DTLB LOAD         ACCESS:   34637440 HIT:   31893533 MISS:    2743907 MSHR_MERGE:     794062
cpu0->cpu0_DTLB RFO          ACCESS:          0 HIT:          0 MISS:          0 MSHR_MERGE:          0
cpu0->cpu0_DTLB PREFETCH     ACCESS:          0 HIT:          0 MISS:          0 MSHR_MERGE:          0
cpu0->cpu0_DTLB WRITE        ACCESS:          0 HIT:          0 MISS:          0 MSHR_MERGE:          0
cpu0->cpu0_DTLB TRANSLATION  ACCESS:          0 HIT:          0 MISS:          0 MSHR_MERGE:          0
cpu0->cpu0_DTLB PREFETCH REQUESTED:          0 ISSUED:          0 USEFUL:          0 USELESS:          0
cpu0->cpu0_DTLB AVERAGE MISS LATENCY: 60.84 cycles
cpu0->LLC TOTAL        ACCESS:    3840860 HIT:    1400809 MISS:    2440051 MSHR_MERGE:          0
cpu0->LLC LOAD         ACCESS:    1827911 HIT:     296242 MISS:    1531669 MSHR_MERGE:          0
cpu0->LLC RFO          ACCESS:     305869 HIT:      30119 MISS:     275750 MSHR_MERGE:          0
cpu0->LLC PREFETCH     ACCESS:          0 HIT:          0 MISS:          0 MSHR_MERGE:          0
cpu0->LLC WRITE        ACCESS:     915204 HIT:     913290 MISS:       1914 MSHR_MERGE:          0
cpu0->LLC TRANSLATION  ACCESS:     791876 HIT:     161158 MISS:     630718 MSHR_MERGE:          0
cpu0->LLC PREFETCH REQUESTED:          0 ISSUED:          0 USEFUL:          0 USELESS:          0
cpu0->LLC AVERAGE MISS LATENCY: 98.7 cycles

DRAM Statistics

Channel 0 RQ ROW_BUFFER_HIT:      39432
  ROW_BUFFER_MISS:    2398682
  AVG DBUS CONGESTED CYCLE: 9.436
Channel 0 WQ ROW_BUFFER_HIT:     245787
  ROW_BUFFER_MISS:     538014
  FULL:          0
Channel 0 REFRESHES ISSUED:      23561
[2025-09-15 16:47:15] END   suite=spec trace=471.omnetpp-188B (rc=0)
