[2025-09-15 18:32:16] START suite=spec trace=473.astar-153B
CMD: ./bin/champsim -w 20000000 -i 100000000 /home/ho/prefetch_aware_insertion_ptr/traces/spec2k17/473.astar-153B.champsimtrace.xz
[VMEM] WARNING: physical memory size is smaller than virtual memory size.

*** ChampSim Multicore Out-of-Order Simulator ***
Warmup Instructions: 20000000
Simulation Instructions: 100000000
Number of CPUs: 1
Page size: 4096

Off-chip DRAM Size: 16 GiB Channels: 1 Width: 64-bit Data Rate: 3205 MT/s
Heartbeat CPU 0 instructions: 10000004 cycles: 2423781 heartbeat IPC: 4.126 cumulative IPC: 4.126 (Simulation time: 00 hr 00 min 35 sec)
Warmup finished CPU 0 instructions: 20000001 cycles: 4442191 cumulative IPC: 4.502 (Simulation time: 00 hr 01 min 09 sec)
Warmup complete CPU 0 instructions: 20000001 cycles: 4442191 cumulative IPC: 4.502 (Simulation time: 00 hr 01 min 09 sec)
Heartbeat CPU 0 instructions: 20000006 cycles: 4442192 heartbeat IPC: 4.954 cumulative IPC: 5 (Simulation time: 00 hr 01 min 09 sec)
Heartbeat CPU 0 instructions: 30000006 cycles: 12853720 heartbeat IPC: 1.189 cumulative IPC: 1.189 (Simulation time: 00 hr 02 min 11 sec)
Heartbeat CPU 0 instructions: 40000010 cycles: 21247468 heartbeat IPC: 1.191 cumulative IPC: 1.19 (Simulation time: 00 hr 03 min 10 sec)
Heartbeat CPU 0 instructions: 50000013 cycles: 29601885 heartbeat IPC: 1.197 cumulative IPC: 1.192 (Simulation time: 00 hr 04 min 09 sec)
Heartbeat CPU 0 instructions: 60000015 cycles: 37829313 heartbeat IPC: 1.215 cumulative IPC: 1.198 (Simulation time: 00 hr 05 min 10 sec)
Heartbeat CPU 0 instructions: 70000017 cycles: 45925757 heartbeat IPC: 1.235 cumulative IPC: 1.205 (Simulation time: 00 hr 06 min 07 sec)
Heartbeat CPU 0 instructions: 80000017 cycles: 54008780 heartbeat IPC: 1.237 cumulative IPC: 1.21 (Simulation time: 00 hr 07 min 05 sec)
Heartbeat CPU 0 instructions: 90000019 cycles: 62117940 heartbeat IPC: 1.233 cumulative IPC: 1.214 (Simulation time: 00 hr 08 min 04 sec)
Heartbeat CPU 0 instructions: 100000021 cycles: 70300304 heartbeat IPC: 1.222 cumulative IPC: 1.215 (Simulation time: 00 hr 09 min 06 sec)
Heartbeat CPU 0 instructions: 110000024 cycles: 78344927 heartbeat IPC: 1.243 cumulative IPC: 1.218 (Simulation time: 00 hr 10 min 06 sec)
Simulation finished CPU 0 instructions: 100000003 cycles: 82048027 cumulative IPC: 1.219 (Simulation time: 00 hr 11 min 09 sec)
Simulation complete CPU 0 instructions: 100000003 cycles: 82048027 cumulative IPC: 1.219 (Simulation time: 00 hr 11 min 09 sec)

ChampSim completed all CPUs

=== Simulation ===
CPU 0 runs /home/ho/prefetch_aware_insertion_ptr/traces/spec2k17/473.astar-153B.champsimtrace.xz

Region of Interest Statistics

CPU 0 cumulative IPC: 1.219 instructions: 100000003 cycles: 82048027
CPU 0 Branch Prediction Accuracy: 78.28% MPKI: 28.35 Average ROB Occupancy at Mispredict: 37.14
Branch type MPKI
BRANCH_DIRECT_JUMP: 0
BRANCH_INDIRECT: 0
BRANCH_CONDITIONAL: 28.35
BRANCH_DIRECT_CALL: 0
BRANCH_INDIRECT_CALL: 0
BRANCH_RETURN: 0


====Backend Stall Breakdown====
ROB_STALL: 132954
LQ_STALL: 0
SQ_STALL: 17712


====ROB Stall Breakdown====

== Average ==
ADDR_TRANS: 192.94156
REPLAY_LOAD: 73.25
NON_REPLAY_LOAD: 14.534538

== Total ==
ADDR_TRANS: 29713
REPLAY_LOAD: 13185
NON_REPLAY_LOAD: 90056

== Counts ==
ADDR_TRANS: 154
REPLAY_LOAD: 180
NON_REPLAY_LOAD: 6196

cpu0->cpu0_STLB TOTAL        ACCESS:     239825 HIT:     232455 MISS:       7370 MSHR_MERGE:          0
cpu0->cpu0_STLB LOAD         ACCESS:     239825 HIT:     232455 MISS:       7370 MSHR_MERGE:          0
cpu0->cpu0_STLB RFO          ACCESS:          0 HIT:          0 MISS:          0 MSHR_MERGE:          0
cpu0->cpu0_STLB PREFETCH     ACCESS:          0 HIT:          0 MISS:          0 MSHR_MERGE:          0
cpu0->cpu0_STLB WRITE        ACCESS:          0 HIT:          0 MISS:          0 MSHR_MERGE:          0
cpu0->cpu0_STLB TRANSLATION  ACCESS:          0 HIT:          0 MISS:          0 MSHR_MERGE:          0
cpu0->cpu0_STLB PREFETCH REQUESTED:          0 ISSUED:          0 USEFUL:          0 USELESS:          0
cpu0->cpu0_STLB AVERAGE MISS LATENCY: 186.1 cycles
cpu0->cpu0_L2C TOTAL        ACCESS:     476308 HIT:     273795 MISS:     202513 MSHR_MERGE:          0
cpu0->cpu0_L2C LOAD         ACCESS:     246438 HIT:     102974 MISS:     143464 MSHR_MERGE:          0
cpu0->cpu0_L2C RFO          ACCESS:      49818 HIT:       2795 MISS:      47023 MSHR_MERGE:          0
cpu0->cpu0_L2C PREFETCH     ACCESS:          0 HIT:          0 MISS:          0 MSHR_MERGE:          0
cpu0->cpu0_L2C WRITE        ACCESS:     167327 HIT:     167316 MISS:         11 MSHR_MERGE:          0
cpu0->cpu0_L2C TRANSLATION  ACCESS:      12725 HIT:        710 MISS:      12015 MSHR_MERGE:          0
cpu0->cpu0_L2C PREFETCH REQUESTED:          0 ISSUED:          0 USEFUL:          0 USELESS:          0
cpu0->cpu0_L2C AVERAGE MISS LATENCY: 58.75 cycles
cpu0->cpu0_L1I TOTAL        ACCESS:     912686 HIT:     912686 MISS:          0 MSHR_MERGE:          0
cpu0->cpu0_L1I LOAD         ACCESS:     912686 HIT:     912686 MISS:          0 MSHR_MERGE:          0
cpu0->cpu0_L1I RFO          ACCESS:          0 HIT:          0 MISS:          0 MSHR_MERGE:          0
cpu0->cpu0_L1I PREFETCH     ACCESS:          0 HIT:          0 MISS:          0 MSHR_MERGE:          0
cpu0->cpu0_L1I WRITE        ACCESS:          0 HIT:          0 MISS:          0 MSHR_MERGE:          0
cpu0->cpu0_L1I TRANSLATION  ACCESS:          0 HIT:          0 MISS:          0 MSHR_MERGE:          0
cpu0->cpu0_L1I PREFETCH REQUESTED:          0 ISSUED:          0 USEFUL:          0 USELESS:          0
cpu0->cpu0_L1I AVERAGE MISS LATENCY: - cycles
cpu0->cpu0_L1D TOTAL        ACCESS:   33803759 HIT:   33227162 MISS:     576597 MSHR_MERGE:     267611
cpu0->cpu0_L1D LOAD         ACCESS:   20730246 HIT:   20254567 MISS:     475679 MSHR_MERGE:     229236
cpu0->cpu0_L1D RFO          ACCESS:          0 HIT:          0 MISS:          0 MSHR_MERGE:          0
cpu0->cpu0_L1D PREFETCH     ACCESS:          0 HIT:          0 MISS:          0 MSHR_MERGE:          0
cpu0->cpu0_L1D WRITE        ACCESS:   13058772 HIT:   12970609 MISS:      88163 MSHR_MERGE:      38345
cpu0->cpu0_L1D TRANSLATION  ACCESS:      14741 HIT:       1986 MISS:      12755 MSHR_MERGE:         30
cpu0->cpu0_L1D PREFETCH REQUESTED:          0 ISSUED:          0 USEFUL:          0 USELESS:          0
cpu0->cpu0_L1D AVERAGE MISS LATENCY: 51.04 cycles
cpu0->cpu0_ITLB TOTAL        ACCESS:     808584 HIT:     808584 MISS:          0 MSHR_MERGE:          0
cpu0->cpu0_ITLB LOAD         ACCESS:     808584 HIT:     808584 MISS:          0 MSHR_MERGE:          0
cpu0->cpu0_ITLB RFO          ACCESS:          0 HIT:          0 MISS:          0 MSHR_MERGE:          0
cpu0->cpu0_ITLB PREFETCH     ACCESS:          0 HIT:          0 MISS:          0 MSHR_MERGE:          0
cpu0->cpu0_ITLB WRITE        ACCESS:          0 HIT:          0 MISS:          0 MSHR_MERGE:          0
cpu0->cpu0_ITLB TRANSLATION  ACCESS:          0 HIT:          0 MISS:          0 MSHR_MERGE:          0
cpu0->cpu0_ITLB PREFETCH REQUESTED:          0 ISSUED:          0 USEFUL:          0 USELESS:          0
cpu0->cpu0_ITLB AVERAGE MISS LATENCY: - cycles
cpu0->cpu0_DTLB TOTAL        ACCESS:   32128039 HIT:   31872617 MISS:     255422 MSHR_MERGE:      15597
cpu0->cpu0_DTLB LOAD         ACCESS:   32128039 HIT:   31872617 MISS:     255422 MSHR_MERGE:      15597
cpu0->cpu0_DTLB RFO          ACCESS:          0 HIT:          0 MISS:          0 MSHR_MERGE:          0
cpu0->cpu0_DTLB PREFETCH     ACCESS:          0 HIT:          0 MISS:          0 MSHR_MERGE:          0
cpu0->cpu0_DTLB WRITE        ACCESS:          0 HIT:          0 MISS:          0 MSHR_MERGE:          0
cpu0->cpu0_DTLB TRANSLATION  ACCESS:          0 HIT:          0 MISS:          0 MSHR_MERGE:          0
cpu0->cpu0_DTLB PREFETCH REQUESTED:          0 ISSUED:          0 USEFUL:          0 USELESS:          0
cpu0->cpu0_DTLB AVERAGE MISS LATENCY: 10.75 cycles
cpu0->LLC TOTAL        ACCESS:     329530 HIT:     258708 MISS:      70822 MSHR_MERGE:          0
cpu0->LLC LOAD         ACCESS:     143464 HIT:     106473 MISS:      36991 MSHR_MERGE:          0
cpu0->LLC RFO          ACCESS:      47023 HIT:      18549 MISS:      28474 MSHR_MERGE:          0
cpu0->LLC PREFETCH     ACCESS:          0 HIT:          0 MISS:          0 MSHR_MERGE:          0
cpu0->LLC WRITE        ACCESS:     127028 HIT:     127027 MISS:          1 MSHR_MERGE:          0
cpu0->LLC TRANSLATION  ACCESS:      12015 HIT:       6659 MISS:       5356 MSHR_MERGE:          0
cpu0->LLC PREFETCH REQUESTED:          0 ISSUED:          0 USEFUL:          0 USELESS:          0
cpu0->LLC AVERAGE MISS LATENCY: 81.86 cycles

DRAM Statistics

Channel 0 RQ ROW_BUFFER_HIT:       1198
  ROW_BUFFER_MISS:      69622
  AVG DBUS CONGESTED CYCLE: 5.952
Channel 0 WQ ROW_BUFFER_HIT:       1466
  ROW_BUFFER_MISS:      39935
  FULL:          0
Channel 0 REFRESHES ISSUED:       6837
[2025-09-15 18:43:25] END   suite=spec trace=473.astar-153B (rc=0)
