[2025-09-15 17:05:13] START suite=spec trace=473.astar-42B
CMD: ./bin/champsim -w 20000000 -i 100000000 /home/ho/prefetch_aware_insertion_ptr/traces/spec2k17/473.astar-42B.champsimtrace.xz
[VMEM] WARNING: physical memory size is smaller than virtual memory size.

*** ChampSim Multicore Out-of-Order Simulator ***
Warmup Instructions: 20000000
Simulation Instructions: 100000000
Number of CPUs: 1
Page size: 4096

Off-chip DRAM Size: 16 GiB Channels: 1 Width: 64-bit Data Rate: 3205 MT/s
Heartbeat CPU 0 instructions: 10000001 cycles: 2310929 heartbeat IPC: 4.327 cumulative IPC: 4.327 (Simulation time: 00 hr 00 min 36 sec)
Heartbeat CPU 0 instructions: 20000004 cycles: 4424863 heartbeat IPC: 4.731 cumulative IPC: 4.52 (Simulation time: 00 hr 01 min 11 sec)
Warmup finished CPU 0 instructions: 20000004 cycles: 4424863 cumulative IPC: 4.52 (Simulation time: 00 hr 01 min 11 sec)
Warmup complete CPU 0 instructions: 20000004 cycles: 4424863 cumulative IPC: 4.52 (Simulation time: 00 hr 01 min 11 sec)
Heartbeat CPU 0 instructions: 30000006 cycles: 27697699 heartbeat IPC: 0.4297 cumulative IPC: 0.4297 (Simulation time: 00 hr 03 min 22 sec)
Heartbeat CPU 0 instructions: 40000008 cycles: 47258713 heartbeat IPC: 0.5112 cumulative IPC: 0.4669 (Simulation time: 00 hr 05 min 13 sec)
Heartbeat CPU 0 instructions: 50000009 cycles: 67630988 heartbeat IPC: 0.4909 cumulative IPC: 0.4746 (Simulation time: 00 hr 07 min 01 sec)
Heartbeat CPU 0 instructions: 60000009 cycles: 86811212 heartbeat IPC: 0.5214 cumulative IPC: 0.4855 (Simulation time: 00 hr 08 min 30 sec)
Heartbeat CPU 0 instructions: 70000012 cycles: 106348134 heartbeat IPC: 0.5119 cumulative IPC: 0.4906 (Simulation time: 00 hr 10 min 05 sec)
Heartbeat CPU 0 instructions: 80000016 cycles: 127521771 heartbeat IPC: 0.4723 cumulative IPC: 0.4874 (Simulation time: 00 hr 11 min 55 sec)
Heartbeat CPU 0 instructions: 90000016 cycles: 150551003 heartbeat IPC: 0.4342 cumulative IPC: 0.479 (Simulation time: 00 hr 14 min 01 sec)
Heartbeat CPU 0 instructions: 100000016 cycles: 171310350 heartbeat IPC: 0.4817 cumulative IPC: 0.4794 (Simulation time: 00 hr 15 min 50 sec)
Heartbeat CPU 0 instructions: 110000020 cycles: 192523857 heartbeat IPC: 0.4714 cumulative IPC: 0.4785 (Simulation time: 00 hr 17 min 38 sec)
Simulation finished CPU 0 instructions: 100000002 cycles: 213442284 cumulative IPC: 0.4685 (Simulation time: 00 hr 19 min 48 sec)
Simulation complete CPU 0 instructions: 100000002 cycles: 213442284 cumulative IPC: 0.4685 (Simulation time: 00 hr 19 min 48 sec)

ChampSim completed all CPUs

=== Simulation ===
CPU 0 runs /home/ho/prefetch_aware_insertion_ptr/traces/spec2k17/473.astar-42B.champsimtrace.xz

Region of Interest Statistics

CPU 0 cumulative IPC: 0.4685 instructions: 100000002 cycles: 213442284
CPU 0 Branch Prediction Accuracy: 72.23% MPKI: 52.43 Average ROB Occupancy at Mispredict: 4.436
Branch type MPKI
BRANCH_DIRECT_JUMP: 0.00024
BRANCH_INDIRECT: 0
BRANCH_CONDITIONAL: 52.43
BRANCH_DIRECT_CALL: 0.00018
BRANCH_INDIRECT_CALL: 0
BRANCH_RETURN: 0.00022


====Backend Stall Breakdown====
ROB_STALL: 79462
LQ_STALL: 0
SQ_STALL: 0


====ROB Stall Breakdown====

== Average ==
ADDR_TRANS: 101.156685
REPLAY_LOAD: 55.43058
NON_REPLAY_LOAD: 54.332638

== Total ==
ADDR_TRANS: 21951
REPLAY_LOAD: 31540
NON_REPLAY_LOAD: 25971

== Counts ==
ADDR_TRANS: 217
REPLAY_LOAD: 569
NON_REPLAY_LOAD: 478

cpu0->cpu0_STLB TOTAL        ACCESS:    2350450 HIT:    1902033 MISS:     448417 MSHR_MERGE:          0
cpu0->cpu0_STLB LOAD         ACCESS:    2350450 HIT:    1902033 MISS:     448417 MSHR_MERGE:          0
cpu0->cpu0_STLB RFO          ACCESS:          0 HIT:          0 MISS:          0 MSHR_MERGE:          0
cpu0->cpu0_STLB PREFETCH     ACCESS:          0 HIT:          0 MISS:          0 MSHR_MERGE:          0
cpu0->cpu0_STLB WRITE        ACCESS:          0 HIT:          0 MISS:          0 MSHR_MERGE:          0
cpu0->cpu0_STLB TRANSLATION  ACCESS:          0 HIT:          0 MISS:          0 MSHR_MERGE:          0
cpu0->cpu0_STLB PREFETCH REQUESTED:          0 ISSUED:          0 USEFUL:          0 USELESS:          0
cpu0->cpu0_STLB AVERAGE MISS LATENCY: 50.24 cycles
cpu0->cpu0_L2C TOTAL        ACCESS:    4407966 HIT:    3114125 MISS:    1293841 MSHR_MERGE:          0
cpu0->cpu0_L2C LOAD         ACCESS:    2823222 HIT:    1671534 MISS:    1151688 MSHR_MERGE:          0
cpu0->cpu0_L2C RFO          ACCESS:      48045 HIT:      42215 MISS:       5830 MSHR_MERGE:          0
cpu0->cpu0_L2C PREFETCH     ACCESS:          0 HIT:          0 MISS:          0 MSHR_MERGE:          0
cpu0->cpu0_L2C WRITE        ACCESS:     947800 HIT:     947745 MISS:         55 MSHR_MERGE:          0
cpu0->cpu0_L2C TRANSLATION  ACCESS:     588899 HIT:     452631 MISS:     136268 MSHR_MERGE:          0
cpu0->cpu0_L2C PREFETCH REQUESTED:          0 ISSUED:          0 USEFUL:          0 USELESS:          0
cpu0->cpu0_L2C AVERAGE MISS LATENCY: 49.36 cycles
cpu0->cpu0_L1I TOTAL        ACCESS:     150102 HIT:     149977 MISS:        125 MSHR_MERGE:         20
cpu0->cpu0_L1I LOAD         ACCESS:     150102 HIT:     149977 MISS:        125 MSHR_MERGE:         20
cpu0->cpu0_L1I RFO          ACCESS:          0 HIT:          0 MISS:          0 MSHR_MERGE:          0
cpu0->cpu0_L1I PREFETCH     ACCESS:          0 HIT:          0 MISS:          0 MSHR_MERGE:          0
cpu0->cpu0_L1I WRITE        ACCESS:          0 HIT:          0 MISS:          0 MSHR_MERGE:          0
cpu0->cpu0_L1I TRANSLATION  ACCESS:          0 HIT:          0 MISS:          0 MSHR_MERGE:          0
cpu0->cpu0_L1I PREFETCH REQUESTED:          0 ISSUED:          0 USEFUL:          0 USELESS:          0
cpu0->cpu0_L1I AVERAGE MISS LATENCY: 138.9 cycles
cpu0->cpu0_L1D TOTAL        ACCESS:   31393642 HIT:   27107656 MISS:    4285986 MSHR_MERGE:     825909
cpu0->cpu0_L1D LOAD         ACCESS:   26247209 HIT:   22618858 MISS:    3628351 MSHR_MERGE:     805226
cpu0->cpu0_L1D RFO          ACCESS:          0 HIT:          0 MISS:          0 MSHR_MERGE:          0
cpu0->cpu0_L1D PREFETCH     ACCESS:          0 HIT:          0 MISS:          0 MSHR_MERGE:          0
cpu0->cpu0_L1D WRITE        ACCESS:    4250821 HIT:    4199999 MISS:      50822 MSHR_MERGE:       2769
cpu0->cpu0_L1D TRANSLATION  ACCESS:     895612 HIT:     288799 MISS:     606813 MSHR_MERGE:      17914
cpu0->cpu0_L1D PREFETCH REQUESTED:          0 ISSUED:          0 USEFUL:          0 USELESS:          0
cpu0->cpu0_L1D AVERAGE MISS LATENCY: 30.27 cycles
cpu0->cpu0_ITLB TOTAL        ACCESS:     130040 HIT:     130027 MISS:         13 MSHR_MERGE:          5
cpu0->cpu0_ITLB LOAD         ACCESS:     130040 HIT:     130027 MISS:         13 MSHR_MERGE:          5
cpu0->cpu0_ITLB RFO          ACCESS:          0 HIT:          0 MISS:          0 MSHR_MERGE:          0
cpu0->cpu0_ITLB PREFETCH     ACCESS:          0 HIT:          0 MISS:          0 MSHR_MERGE:          0
cpu0->cpu0_ITLB WRITE        ACCESS:          0 HIT:          0 MISS:          0 MSHR_MERGE:          0
cpu0->cpu0_ITLB TRANSLATION  ACCESS:          0 HIT:          0 MISS:          0 MSHR_MERGE:          0
cpu0->cpu0_ITLB PREFETCH REQUESTED:          0 ISSUED:          0 USEFUL:          0 USELESS:          0
cpu0->cpu0_ITLB AVERAGE MISS LATENCY: 643.8 cycles
cpu0->cpu0_DTLB TOTAL        ACCESS:   29895897 HIT:   26873949 MISS:    3021948 MSHR_MERGE:     671506
cpu0->cpu0_DTLB LOAD         ACCESS:   29895897 HIT:   26873949 MISS:    3021948 MSHR_MERGE:     671506
cpu0->cpu0_DTLB RFO          ACCESS:          0 HIT:          0 MISS:          0 MSHR_MERGE:          0
cpu0->cpu0_DTLB PREFETCH     ACCESS:          0 HIT:          0 MISS:          0 MSHR_MERGE:          0
cpu0->cpu0_DTLB WRITE        ACCESS:          0 HIT:          0 MISS:          0 MSHR_MERGE:          0
cpu0->cpu0_DTLB TRANSLATION  ACCESS:          0 HIT:          0 MISS:          0 MSHR_MERGE:          0
cpu0->cpu0_DTLB PREFETCH REQUESTED:          0 ISSUED:          0 USEFUL:          0 USELESS:          0
cpu0->cpu0_DTLB AVERAGE MISS LATENCY: 14.77 cycles
cpu0->LLC TOTAL        ACCESS:    1706573 HIT:    1407274 MISS:     299299 MSHR_MERGE:          0
cpu0->LLC LOAD         ACCESS:    1151687 HIT:     906365 MISS:     245322 MSHR_MERGE:          0
cpu0->LLC RFO          ACCESS:       5830 HIT:       5434 MISS:        396 MSHR_MERGE:          0
cpu0->LLC PREFETCH     ACCESS:          0 HIT:          0 MISS:          0 MSHR_MERGE:          0
cpu0->LLC WRITE        ACCESS:     412788 HIT:     412482 MISS:        306 MSHR_MERGE:          0
cpu0->LLC TRANSLATION  ACCESS:     136268 HIT:      82993 MISS:      53275 MSHR_MERGE:          0
cpu0->LLC PREFETCH REQUESTED:          0 ISSUED:          0 USEFUL:          0 USELESS:          0
cpu0->LLC AVERAGE MISS LATENCY: 85.59 cycles

DRAM Statistics

Channel 0 RQ ROW_BUFFER_HIT:       1162
  ROW_BUFFER_MISS:     297815
  AVG DBUS CONGESTED CYCLE: 5.95
Channel 0 WQ ROW_BUFFER_HIT:       7228
  ROW_BUFFER_MISS:     140194
  FULL:          0
Channel 0 REFRESHES ISSUED:      17787
[2025-09-15 17:25:02] END   suite=spec trace=473.astar-42B (rc=0)
