[2025-09-15 18:12:17] START suite=spec trace=482.sphinx3-1522B
CMD: ./bin/champsim -w 20000000 -i 100000000 /home/ho/prefetch_aware_insertion_ptr/traces/spec2k17/482.sphinx3-1522B.champsimtrace.xz
[VMEM] WARNING: physical memory size is smaller than virtual memory size.

*** ChampSim Multicore Out-of-Order Simulator ***
Warmup Instructions: 20000000
Simulation Instructions: 100000000
Number of CPUs: 1
Page size: 4096

Off-chip DRAM Size: 16 GiB Channels: 1 Width: 64-bit Data Rate: 3205 MT/s
Heartbeat CPU 0 instructions: 10000002 cycles: 2374826 heartbeat IPC: 4.211 cumulative IPC: 4.211 (Simulation time: 00 hr 00 min 34 sec)
Warmup finished CPU 0 instructions: 20000000 cycles: 4504231 cumulative IPC: 4.44 (Simulation time: 00 hr 01 min 03 sec)
Warmup complete CPU 0 instructions: 20000000 cycles: 4504231 cumulative IPC: 4.44 (Simulation time: 00 hr 01 min 03 sec)
Heartbeat CPU 0 instructions: 20000005 cycles: 4504232 heartbeat IPC: 4.696 cumulative IPC: 5 (Simulation time: 00 hr 01 min 03 sec)
Heartbeat CPU 0 instructions: 30000008 cycles: 12988109 heartbeat IPC: 1.179 cumulative IPC: 1.179 (Simulation time: 00 hr 02 min 17 sec)
Heartbeat CPU 0 instructions: 40000012 cycles: 21729384 heartbeat IPC: 1.144 cumulative IPC: 1.161 (Simulation time: 00 hr 03 min 32 sec)
Heartbeat CPU 0 instructions: 50000015 cycles: 30356672 heartbeat IPC: 1.159 cumulative IPC: 1.16 (Simulation time: 00 hr 04 min 44 sec)
Heartbeat CPU 0 instructions: 60000015 cycles: 39212644 heartbeat IPC: 1.129 cumulative IPC: 1.152 (Simulation time: 00 hr 05 min 53 sec)
Heartbeat CPU 0 instructions: 70000016 cycles: 47588088 heartbeat IPC: 1.194 cumulative IPC: 1.161 (Simulation time: 00 hr 07 min 00 sec)
Heartbeat CPU 0 instructions: 80000020 cycles: 56732407 heartbeat IPC: 1.094 cumulative IPC: 1.149 (Simulation time: 00 hr 08 min 18 sec)
Heartbeat CPU 0 instructions: 90000021 cycles: 65809669 heartbeat IPC: 1.102 cumulative IPC: 1.142 (Simulation time: 00 hr 09 min 33 sec)
Heartbeat CPU 0 instructions: 100000024 cycles: 74856940 heartbeat IPC: 1.105 cumulative IPC: 1.137 (Simulation time: 00 hr 10 min 49 sec)
Heartbeat CPU 0 instructions: 110000025 cycles: 83969406 heartbeat IPC: 1.097 cumulative IPC: 1.133 (Simulation time: 00 hr 12 min 01 sec)
Simulation finished CPU 0 instructions: 100000001 cycles: 88530607 cumulative IPC: 1.13 (Simulation time: 00 hr 13 min 10 sec)
Simulation complete CPU 0 instructions: 100000001 cycles: 88530607 cumulative IPC: 1.13 (Simulation time: 00 hr 13 min 10 sec)

ChampSim completed all CPUs

=== Simulation ===
CPU 0 runs /home/ho/prefetch_aware_insertion_ptr/traces/spec2k17/482.sphinx3-1522B.champsimtrace.xz

Region of Interest Statistics

CPU 0 cumulative IPC: 1.13 instructions: 100000001 cycles: 88530607
CPU 0 Branch Prediction Accuracy: 95.85% MPKI: 3.702 Average ROB Occupancy at Mispredict: 194.2
Branch type MPKI
BRANCH_DIRECT_JUMP: 6e-05
BRANCH_INDIRECT: 0
BRANCH_CONDITIONAL: 3.701
BRANCH_DIRECT_CALL: 3e-05
BRANCH_INDIRECT_CALL: 1e-05
BRANCH_RETURN: 0.00081


====Backend Stall Breakdown====
ROB_STALL: 16634124
LQ_STALL: 67
SQ_STALL: 294435


====ROB Stall Breakdown====

== Average ==
ADDR_TRANS: 175.18063
REPLAY_LOAD: 99.876396
NON_REPLAY_LOAD: 60.2621

== Total ==
ADDR_TRANS: 848575
REPLAY_LOAD: 677961
NON_REPLAY_LOAD: 15107588

== Counts ==
ADDR_TRANS: 4844
REPLAY_LOAD: 6788
NON_REPLAY_LOAD: 250698

cpu0->cpu0_STLB TOTAL        ACCESS:     126958 HIT:      91301 MISS:      35657 MSHR_MERGE:          0
cpu0->cpu0_STLB LOAD         ACCESS:     126958 HIT:      91301 MISS:      35657 MSHR_MERGE:          0
cpu0->cpu0_STLB RFO          ACCESS:          0 HIT:          0 MISS:          0 MSHR_MERGE:          0
cpu0->cpu0_STLB PREFETCH     ACCESS:          0 HIT:          0 MISS:          0 MSHR_MERGE:          0
cpu0->cpu0_STLB WRITE        ACCESS:          0 HIT:          0 MISS:          0 MSHR_MERGE:          0
cpu0->cpu0_STLB TRANSLATION  ACCESS:          0 HIT:          0 MISS:          0 MSHR_MERGE:          0
cpu0->cpu0_STLB PREFETCH REQUESTED:          0 ISSUED:          0 USEFUL:          0 USELESS:          0
cpu0->cpu0_STLB AVERAGE MISS LATENCY: 244.8 cycles
cpu0->cpu0_L2C TOTAL        ACCESS:    1587215 HIT:     298446 MISS:    1288769 MSHR_MERGE:          0
cpu0->cpu0_L2C LOAD         ACCESS:    1329671 HIT:     181603 MISS:    1148068 MSHR_MERGE:          0
cpu0->cpu0_L2C RFO          ACCESS:      90597 HIT:       6228 MISS:      84369 MSHR_MERGE:          0
cpu0->cpu0_L2C PREFETCH     ACCESS:          0 HIT:          0 MISS:          0 MSHR_MERGE:          0
cpu0->cpu0_L2C WRITE        ACCESS:     110487 HIT:     110149 MISS:        338 MSHR_MERGE:          0
cpu0->cpu0_L2C TRANSLATION  ACCESS:      56460 HIT:        466 MISS:      55994 MSHR_MERGE:          0
cpu0->cpu0_L2C PREFETCH REQUESTED:          0 ISSUED:          0 USEFUL:          0 USELESS:          0
cpu0->cpu0_L2C AVERAGE MISS LATENCY: 127.2 cycles
cpu0->cpu0_L1I TOTAL        ACCESS:    8679502 HIT:    8679310 MISS:        192 MSHR_MERGE:         97
cpu0->cpu0_L1I LOAD         ACCESS:    8679502 HIT:    8679310 MISS:        192 MSHR_MERGE:         97
cpu0->cpu0_L1I RFO          ACCESS:          0 HIT:          0 MISS:          0 MSHR_MERGE:          0
cpu0->cpu0_L1I PREFETCH     ACCESS:          0 HIT:          0 MISS:          0 MSHR_MERGE:          0
cpu0->cpu0_L1I WRITE        ACCESS:          0 HIT:          0 MISS:          0 MSHR_MERGE:          0
cpu0->cpu0_L1I TRANSLATION  ACCESS:          0 HIT:          0 MISS:          0 MSHR_MERGE:          0
cpu0->cpu0_L1I PREFETCH REQUESTED:          0 ISSUED:          0 USEFUL:          0 USELESS:          0
cpu0->cpu0_L1I AVERAGE MISS LATENCY: 142.7 cycles
cpu0->cpu0_L1D TOTAL        ACCESS:   21775106 HIT:   13995049 MISS:    7780057 MSHR_MERGE:    6303421
cpu0->cpu0_L1D LOAD         ACCESS:   19871936 HIT:   12691414 MISS:    7180522 MSHR_MERGE:    5850944
cpu0->cpu0_L1D RFO          ACCESS:          0 HIT:          0 MISS:          0 MSHR_MERGE:          0
cpu0->cpu0_L1D PREFETCH     ACCESS:          0 HIT:          0 MISS:          0 MSHR_MERGE:          0
cpu0->cpu0_L1D WRITE        ACCESS:    1831871 HIT:    1289003 MISS:     542868 MSHR_MERGE:     452270
cpu0->cpu0_L1D TRANSLATION  ACCESS:      71299 HIT:      14632 MISS:      56667 MSHR_MERGE:        207
cpu0->cpu0_L1D PREFETCH REQUESTED:          0 ISSUED:          0 USEFUL:          0 USELESS:          0
cpu0->cpu0_L1D AVERAGE MISS LATENCY: 123.7 cycles
cpu0->cpu0_ITLB TOTAL        ACCESS:    6961982 HIT:    6961981 MISS:          1 MSHR_MERGE:          0
cpu0->cpu0_ITLB LOAD         ACCESS:    6961982 HIT:    6961981 MISS:          1 MSHR_MERGE:          0
cpu0->cpu0_ITLB RFO          ACCESS:          0 HIT:          0 MISS:          0 MSHR_MERGE:          0
cpu0->cpu0_ITLB PREFETCH     ACCESS:          0 HIT:          0 MISS:          0 MSHR_MERGE:          0
cpu0->cpu0_ITLB WRITE        ACCESS:          0 HIT:          0 MISS:          0 MSHR_MERGE:          0
cpu0->cpu0_ITLB TRANSLATION  ACCESS:          0 HIT:          0 MISS:          0 MSHR_MERGE:          0
cpu0->cpu0_ITLB PREFETCH REQUESTED:          0 ISSUED:          0 USEFUL:          0 USELESS:          0
cpu0->cpu0_ITLB AVERAGE MISS LATENCY: 709 cycles
cpu0->cpu0_DTLB TOTAL        ACCESS:   21571204 HIT:   21185549 MISS:     385655 MSHR_MERGE:     258698
cpu0->cpu0_DTLB LOAD         ACCESS:   21571204 HIT:   21185549 MISS:     385655 MSHR_MERGE:     258698
cpu0->cpu0_DTLB RFO          ACCESS:          0 HIT:          0 MISS:          0 MSHR_MERGE:          0
cpu0->cpu0_DTLB PREFETCH     ACCESS:          0 HIT:          0 MISS:          0 MSHR_MERGE:          0
cpu0->cpu0_DTLB WRITE        ACCESS:          0 HIT:          0 MISS:          0 MSHR_MERGE:          0
cpu0->cpu0_DTLB TRANSLATION  ACCESS:          0 HIT:          0 MISS:          0 MSHR_MERGE:          0
cpu0->cpu0_DTLB PREFETCH REQUESTED:          0 ISSUED:          0 USEFUL:          0 USELESS:          0
cpu0->cpu0_DTLB AVERAGE MISS LATENCY: 74.02 cycles
cpu0->LLC TOTAL        ACCESS:    1390678 HIT:     181104 MISS:    1209574 MSHR_MERGE:          0
cpu0->LLC LOAD         ACCESS:    1148068 HIT:      62609 MISS:    1085459 MSHR_MERGE:          0
cpu0->LLC RFO          ACCESS:      84369 HIT:      16788 MISS:      67581 MSHR_MERGE:          0
cpu0->LLC PREFETCH     ACCESS:          0 HIT:          0 MISS:          0 MSHR_MERGE:          0
cpu0->LLC WRITE        ACCESS:     102247 HIT:     101072 MISS:       1175 MSHR_MERGE:          0
cpu0->LLC TRANSLATION  ACCESS:      55994 HIT:        635 MISS:      55359 MSHR_MERGE:          0
cpu0->LLC PREFETCH REQUESTED:          0 ISSUED:          0 USEFUL:          0 USELESS:          0
cpu0->LLC AVERAGE MISS LATENCY: 103.2 cycles

DRAM Statistics

Channel 0 RQ ROW_BUFFER_HIT:      29280
  ROW_BUFFER_MISS:    1178895
  AVG DBUS CONGESTED CYCLE: 5.799
Channel 0 WQ ROW_BUFFER_HIT:      28940
  ROW_BUFFER_MISS:      57891
  FULL:          0
Channel 0 REFRESHES ISSUED:       7377
[2025-09-15 18:25:28] END   suite=spec trace=482.sphinx3-1522B (rc=0)
