[2025-09-15 17:58:08] START suite=spec trace=482.sphinx3-234B
CMD: ./bin/champsim -w 20000000 -i 100000000 /home/ho/prefetch_aware_insertion_ptr/traces/spec2k17/482.sphinx3-234B.champsimtrace.xz
[VMEM] WARNING: physical memory size is smaller than virtual memory size.

*** ChampSim Multicore Out-of-Order Simulator ***
Warmup Instructions: 20000000
Simulation Instructions: 100000000
Number of CPUs: 1
Page size: 4096

Off-chip DRAM Size: 16 GiB Channels: 1 Width: 64-bit Data Rate: 3205 MT/s
Heartbeat CPU 0 instructions: 10000003 cycles: 2687480 heartbeat IPC: 3.721 cumulative IPC: 3.721 (Simulation time: 00 hr 00 min 37 sec)
Heartbeat CPU 0 instructions: 20000004 cycles: 4804624 heartbeat IPC: 4.723 cumulative IPC: 4.163 (Simulation time: 00 hr 01 min 09 sec)
Warmup finished CPU 0 instructions: 20000004 cycles: 4804624 cumulative IPC: 4.163 (Simulation time: 00 hr 01 min 09 sec)
Warmup complete CPU 0 instructions: 20000004 cycles: 4804624 cumulative IPC: 4.163 (Simulation time: 00 hr 01 min 09 sec)
Heartbeat CPU 0 instructions: 30000005 cycles: 13336774 heartbeat IPC: 1.172 cumulative IPC: 1.172 (Simulation time: 00 hr 02 min 22 sec)
Heartbeat CPU 0 instructions: 40000008 cycles: 22545570 heartbeat IPC: 1.086 cumulative IPC: 1.127 (Simulation time: 00 hr 03 min 37 sec)
Heartbeat CPU 0 instructions: 50000011 cycles: 31749973 heartbeat IPC: 1.086 cumulative IPC: 1.113 (Simulation time: 00 hr 04 min 50 sec)
Heartbeat CPU 0 instructions: 60000013 cycles: 40844189 heartbeat IPC: 1.1 cumulative IPC: 1.11 (Simulation time: 00 hr 06 min 06 sec)
Heartbeat CPU 0 instructions: 70000013 cycles: 49898353 heartbeat IPC: 1.104 cumulative IPC: 1.109 (Simulation time: 00 hr 07 min 16 sec)
Heartbeat CPU 0 instructions: 80000013 cycles: 58869431 heartbeat IPC: 1.115 cumulative IPC: 1.11 (Simulation time: 00 hr 08 min 26 sec)
Heartbeat CPU 0 instructions: 90000015 cycles: 67852958 heartbeat IPC: 1.113 cumulative IPC: 1.11 (Simulation time: 00 hr 09 min 34 sec)
Heartbeat CPU 0 instructions: 100000015 cycles: 77085155 heartbeat IPC: 1.083 cumulative IPC: 1.107 (Simulation time: 00 hr 10 min 50 sec)
Heartbeat CPU 0 instructions: 110000017 cycles: 86294486 heartbeat IPC: 1.086 cumulative IPC: 1.104 (Simulation time: 00 hr 12 min 08 sec)
Simulation finished CPU 0 instructions: 100000001 cycles: 90418947 cumulative IPC: 1.106 (Simulation time: 00 hr 13 min 22 sec)
Simulation complete CPU 0 instructions: 100000001 cycles: 90418947 cumulative IPC: 1.106 (Simulation time: 00 hr 13 min 22 sec)

ChampSim completed all CPUs

=== Simulation ===
CPU 0 runs /home/ho/prefetch_aware_insertion_ptr/traces/spec2k17/482.sphinx3-234B.champsimtrace.xz

Region of Interest Statistics

CPU 0 cumulative IPC: 1.106 instructions: 100000001 cycles: 90418947
CPU 0 Branch Prediction Accuracy: 95.6% MPKI: 4.063 Average ROB Occupancy at Mispredict: 191.7
Branch type MPKI
BRANCH_DIRECT_JUMP: 0.00042
BRANCH_INDIRECT: 0
BRANCH_CONDITIONAL: 4.06
BRANCH_DIRECT_CALL: 0.00068
BRANCH_INDIRECT_CALL: 5e-05
BRANCH_RETURN: 0.0013


====Backend Stall Breakdown====
ROB_STALL: 19104502
LQ_STALL: 2
SQ_STALL: 245915


====ROB Stall Breakdown====

== Average ==
ADDR_TRANS: 163.97394
REPLAY_LOAD: 96.85864
NON_REPLAY_LOAD: 55.85688

== Total ==
ADDR_TRANS: 723617
REPLAY_LOAD: 653699
NON_REPLAY_LOAD: 17727186

== Counts ==
ADDR_TRANS: 4413
REPLAY_LOAD: 6749
NON_REPLAY_LOAD: 317368

cpu0->cpu0_STLB TOTAL        ACCESS:     127497 HIT:      90520 MISS:      36977 MSHR_MERGE:          0
cpu0->cpu0_STLB LOAD         ACCESS:     127497 HIT:      90520 MISS:      36977 MSHR_MERGE:          0
cpu0->cpu0_STLB RFO          ACCESS:          0 HIT:          0 MISS:          0 MSHR_MERGE:          0
cpu0->cpu0_STLB PREFETCH     ACCESS:          0 HIT:          0 MISS:          0 MSHR_MERGE:          0
cpu0->cpu0_STLB WRITE        ACCESS:          0 HIT:          0 MISS:          0 MSHR_MERGE:          0
cpu0->cpu0_STLB TRANSLATION  ACCESS:          0 HIT:          0 MISS:          0 MSHR_MERGE:          0
cpu0->cpu0_STLB PREFETCH REQUESTED:          0 ISSUED:          0 USEFUL:          0 USELESS:          0
cpu0->cpu0_STLB AVERAGE MISS LATENCY: 232.2 cycles
cpu0->cpu0_L2C TOTAL        ACCESS:    1574463 HIT:     326199 MISS:    1248264 MSHR_MERGE:          0
cpu0->cpu0_L2C LOAD         ACCESS:    1365699 HIT:     228563 MISS:    1137136 MSHR_MERGE:          0
cpu0->cpu0_L2C RFO          ACCESS:      64988 HIT:       9314 MISS:      55674 MSHR_MERGE:          0
cpu0->cpu0_L2C PREFETCH     ACCESS:          0 HIT:          0 MISS:          0 MSHR_MERGE:          0
cpu0->cpu0_L2C WRITE        ACCESS:      88058 HIT:      87842 MISS:        216 MSHR_MERGE:          0
cpu0->cpu0_L2C TRANSLATION  ACCESS:      55718 HIT:        480 MISS:      55238 MSHR_MERGE:          0
cpu0->cpu0_L2C PREFETCH REQUESTED:          0 ISSUED:          0 USEFUL:          0 USELESS:          0
cpu0->cpu0_L2C AVERAGE MISS LATENCY: 128.7 cycles
cpu0->cpu0_L1I TOTAL        ACCESS:    9154663 HIT:    9154216 MISS:        447 MSHR_MERGE:        156
cpu0->cpu0_L1I LOAD         ACCESS:    9154663 HIT:    9154216 MISS:        447 MSHR_MERGE:        156
cpu0->cpu0_L1I RFO          ACCESS:          0 HIT:          0 MISS:          0 MSHR_MERGE:          0
cpu0->cpu0_L1I PREFETCH     ACCESS:          0 HIT:          0 MISS:          0 MSHR_MERGE:          0
cpu0->cpu0_L1I WRITE        ACCESS:          0 HIT:          0 MISS:          0 MSHR_MERGE:          0
cpu0->cpu0_L1I TRANSLATION  ACCESS:          0 HIT:          0 MISS:          0 MSHR_MERGE:          0
cpu0->cpu0_L1I PREFETCH REQUESTED:          0 ISSUED:          0 USEFUL:          0 USELESS:          0
cpu0->cpu0_L1I AVERAGE MISS LATENCY: 141.3 cycles
cpu0->cpu0_L1D TOTAL        ACCESS:   22033914 HIT:   14305720 MISS:    7728194 MSHR_MERGE:    6242079
cpu0->cpu0_L1D LOAD         ACCESS:   19921608 HIT:   12616302 MISS:    7305306 MSHR_MERGE:    5939897
cpu0->cpu0_L1D RFO          ACCESS:          0 HIT:          0 MISS:          0 MSHR_MERGE:          0
cpu0->cpu0_L1D PREFETCH     ACCESS:          0 HIT:          0 MISS:          0 MSHR_MERGE:          0
cpu0->cpu0_L1D WRITE        ACCESS:    2038358 HIT:    1671358 MISS:     367000 MSHR_MERGE:     302012
cpu0->cpu0_L1D TRANSLATION  ACCESS:      73948 HIT:      18060 MISS:      55888 MSHR_MERGE:        170
cpu0->cpu0_L1D PREFETCH REQUESTED:          0 ISSUED:          0 USEFUL:          0 USELESS:          0
cpu0->cpu0_L1D AVERAGE MISS LATENCY: 120.7 cycles
cpu0->cpu0_ITLB TOTAL        ACCESS:    6460430 HIT:    6460413 MISS:         17 MSHR_MERGE:          5
cpu0->cpu0_ITLB LOAD         ACCESS:    6460430 HIT:    6460413 MISS:         17 MSHR_MERGE:          5
cpu0->cpu0_ITLB RFO          ACCESS:          0 HIT:          0 MISS:          0 MSHR_MERGE:          0
cpu0->cpu0_ITLB PREFETCH     ACCESS:          0 HIT:          0 MISS:          0 MSHR_MERGE:          0
cpu0->cpu0_ITLB WRITE        ACCESS:          0 HIT:          0 MISS:          0 MSHR_MERGE:          0
cpu0->cpu0_ITLB TRANSLATION  ACCESS:          0 HIT:          0 MISS:          0 MSHR_MERGE:          0
cpu0->cpu0_ITLB PREFETCH REQUESTED:          0 ISSUED:          0 USEFUL:          0 USELESS:          0
cpu0->cpu0_ITLB AVERAGE MISS LATENCY: 659.2 cycles
cpu0->cpu0_DTLB TOTAL        ACCESS:   21801883 HIT:   21410334 MISS:     391549 MSHR_MERGE:     264064
cpu0->cpu0_DTLB LOAD         ACCESS:   21801883 HIT:   21410334 MISS:     391549 MSHR_MERGE:     264064
cpu0->cpu0_DTLB RFO          ACCESS:          0 HIT:          0 MISS:          0 MSHR_MERGE:          0
cpu0->cpu0_DTLB PREFETCH     ACCESS:          0 HIT:          0 MISS:          0 MSHR_MERGE:          0
cpu0->cpu0_DTLB WRITE        ACCESS:          0 HIT:          0 MISS:          0 MSHR_MERGE:          0
cpu0->cpu0_DTLB TRANSLATION  ACCESS:          0 HIT:          0 MISS:          0 MSHR_MERGE:          0
cpu0->cpu0_DTLB PREFETCH REQUESTED:          0 ISSUED:          0 USEFUL:          0 USELESS:          0
cpu0->cpu0_DTLB AVERAGE MISS LATENCY: 72.57 cycles
cpu0->LLC TOTAL        ACCESS:    1322415 HIT:     123799 MISS:    1198616 MSHR_MERGE:          0
cpu0->LLC LOAD         ACCESS:    1137136 HIT:      42609 MISS:    1094527 MSHR_MERGE:          0
cpu0->LLC RFO          ACCESS:      55674 HIT:       8017 MISS:      47657 MSHR_MERGE:          0
cpu0->LLC PREFETCH     ACCESS:          0 HIT:          0 MISS:          0 MSHR_MERGE:          0
cpu0->LLC WRITE        ACCESS:      74367 HIT:      73085 MISS:       1282 MSHR_MERGE:          0
cpu0->LLC TRANSLATION  ACCESS:      55238 HIT:         88 MISS:      55150 MSHR_MERGE:          0
cpu0->LLC PREFETCH REQUESTED:          0 ISSUED:          0 USEFUL:          0 USELESS:          0
cpu0->LLC AVERAGE MISS LATENCY: 102.5 cycles

DRAM Statistics

Channel 0 RQ ROW_BUFFER_HIT:      26093
  ROW_BUFFER_MISS:    1171237
  AVG DBUS CONGESTED CYCLE: 5.182
Channel 0 WQ ROW_BUFFER_HIT:      23473
  ROW_BUFFER_MISS:      44844
  FULL:          0
Channel 0 REFRESHES ISSUED:       7535
[2025-09-15 18:11:31] END   suite=spec trace=482.sphinx3-234B (rc=0)
