[2025-09-15 17:01:44] START suite=spec trace=482.sphinx3-1395B
CMD: ./bin/champsim -w 20000000 -i 100000000 /home/ho/prefetch_aware_insertion_ptr/traces/spec2k17/482.sphinx3-1395B.champsimtrace.xz
[VMEM] WARNING: physical memory size is smaller than virtual memory size.

*** ChampSim Multicore Out-of-Order Simulator ***
Warmup Instructions: 20000000
Simulation Instructions: 100000000
Number of CPUs: 1
Page size: 4096

Off-chip DRAM Size: 16 GiB Channels: 1 Width: 64-bit Data Rate: 3205 MT/s
Heartbeat CPU 0 instructions: 10000000 cycles: 2424522 heartbeat IPC: 4.125 cumulative IPC: 4.125 (Simulation time: 00 hr 00 min 32 sec)
Heartbeat CPU 0 instructions: 20000004 cycles: 4589686 heartbeat IPC: 4.619 cumulative IPC: 4.358 (Simulation time: 00 hr 01 min 02 sec)
Warmup finished CPU 0 instructions: 20000004 cycles: 4589686 cumulative IPC: 4.358 (Simulation time: 00 hr 01 min 02 sec)
Warmup complete CPU 0 instructions: 20000004 cycles: 4589686 cumulative IPC: 4.358 (Simulation time: 00 hr 01 min 02 sec)
Heartbeat CPU 0 instructions: 30000006 cycles: 13635054 heartbeat IPC: 1.106 cumulative IPC: 1.106 (Simulation time: 00 hr 02 min 20 sec)
Heartbeat CPU 0 instructions: 40000009 cycles: 23074345 heartbeat IPC: 1.059 cumulative IPC: 1.082 (Simulation time: 00 hr 03 min 39 sec)
Heartbeat CPU 0 instructions: 50000011 cycles: 32402446 heartbeat IPC: 1.072 cumulative IPC: 1.079 (Simulation time: 00 hr 04 min 55 sec)
Heartbeat CPU 0 instructions: 60000012 cycles: 40812355 heartbeat IPC: 1.189 cumulative IPC: 1.104 (Simulation time: 00 hr 06 min 00 sec)
Heartbeat CPU 0 instructions: 70000015 cycles: 50167821 heartbeat IPC: 1.069 cumulative IPC: 1.097 (Simulation time: 00 hr 07 min 20 sec)
Heartbeat CPU 0 instructions: 80000015 cycles: 59812246 heartbeat IPC: 1.037 cumulative IPC: 1.087 (Simulation time: 00 hr 08 min 40 sec)
Heartbeat CPU 0 instructions: 90000015 cycles: 68105563 heartbeat IPC: 1.206 cumulative IPC: 1.102 (Simulation time: 00 hr 09 min 54 sec)
Heartbeat CPU 0 instructions: 100000017 cycles: 75377058 heartbeat IPC: 1.375 cumulative IPC: 1.13 (Simulation time: 00 hr 11 min 00 sec)
Heartbeat CPU 0 instructions: 110000021 cycles: 83595955 heartbeat IPC: 1.217 cumulative IPC: 1.139 (Simulation time: 00 hr 12 min 14 sec)
Simulation finished CPU 0 instructions: 100000004 cycles: 87691937 cumulative IPC: 1.14 (Simulation time: 00 hr 13 min 25 sec)
Simulation complete CPU 0 instructions: 100000004 cycles: 87691937 cumulative IPC: 1.14 (Simulation time: 00 hr 13 min 25 sec)

ChampSim completed all CPUs

=== Simulation ===
CPU 0 runs /home/ho/prefetch_aware_insertion_ptr/traces/spec2k17/482.sphinx3-1395B.champsimtrace.xz

Region of Interest Statistics

CPU 0 cumulative IPC: 1.14 instructions: 100000004 cycles: 87691937
CPU 0 Branch Prediction Accuracy: 95.84% MPKI: 3.73 Average ROB Occupancy at Mispredict: 177.9
Branch type MPKI
BRANCH_DIRECT_JUMP: 7e-05
BRANCH_INDIRECT: 0
BRANCH_CONDITIONAL: 3.729
BRANCH_DIRECT_CALL: 6e-05
BRANCH_INDIRECT_CALL: 1e-05
BRANCH_RETURN: 0.00102


====Backend Stall Breakdown====
ROB_STALL: 14630706
LQ_STALL: 48232
SQ_STALL: 367516


====ROB Stall Breakdown====

== Average ==
ADDR_TRANS: 169.90642
REPLAY_LOAD: 96.334885
NON_REPLAY_LOAD: 64.335625

== Total ==
ADDR_TRANS: 813342
REPLAY_LOAD: 642072
NON_REPLAY_LOAD: 13175292

== Counts ==
ADDR_TRANS: 4787
REPLAY_LOAD: 6665
NON_REPLAY_LOAD: 204790

cpu0->cpu0_STLB TOTAL        ACCESS:     119199 HIT:      82346 MISS:      36853 MSHR_MERGE:          0
cpu0->cpu0_STLB LOAD         ACCESS:     119199 HIT:      82346 MISS:      36853 MSHR_MERGE:          0
cpu0->cpu0_STLB RFO          ACCESS:          0 HIT:          0 MISS:          0 MSHR_MERGE:          0
cpu0->cpu0_STLB PREFETCH     ACCESS:          0 HIT:          0 MISS:          0 MSHR_MERGE:          0
cpu0->cpu0_STLB WRITE        ACCESS:          0 HIT:          0 MISS:          0 MSHR_MERGE:          0
cpu0->cpu0_STLB TRANSLATION  ACCESS:          0 HIT:          0 MISS:          0 MSHR_MERGE:          0
cpu0->cpu0_STLB PREFETCH REQUESTED:          0 ISSUED:          0 USEFUL:          0 USELESS:          0
cpu0->cpu0_STLB AVERAGE MISS LATENCY: 239.9 cycles
cpu0->cpu0_L2C TOTAL        ACCESS:    1668583 HIT:     347890 MISS:    1320693 MSHR_MERGE:          0
cpu0->cpu0_L2C LOAD         ACCESS:    1354850 HIT:     200239 MISS:    1154611 MSHR_MERGE:          0
cpu0->cpu0_L2C RFO          ACCESS:     116829 HIT:       9074 MISS:     107755 MSHR_MERGE:          0
cpu0->cpu0_L2C PREFETCH     ACCESS:          0 HIT:          0 MISS:          0 MSHR_MERGE:          0
cpu0->cpu0_L2C WRITE        ACCESS:     138581 HIT:     138341 MISS:        240 MSHR_MERGE:          0
cpu0->cpu0_L2C TRANSLATION  ACCESS:      58323 HIT:        236 MISS:      58087 MSHR_MERGE:          0
cpu0->cpu0_L2C PREFETCH REQUESTED:          0 ISSUED:          0 USEFUL:          0 USELESS:          0
cpu0->cpu0_L2C AVERAGE MISS LATENCY: 118.8 cycles
cpu0->cpu0_L1I TOTAL        ACCESS:    8086035 HIT:    8085703 MISS:        332 MSHR_MERGE:        183
cpu0->cpu0_L1I LOAD         ACCESS:    8086035 HIT:    8085703 MISS:        332 MSHR_MERGE:        183
cpu0->cpu0_L1I RFO          ACCESS:          0 HIT:          0 MISS:          0 MSHR_MERGE:          0
cpu0->cpu0_L1I PREFETCH     ACCESS:          0 HIT:          0 MISS:          0 MSHR_MERGE:          0
cpu0->cpu0_L1I WRITE        ACCESS:          0 HIT:          0 MISS:          0 MSHR_MERGE:          0
cpu0->cpu0_L1I TRANSLATION  ACCESS:          0 HIT:          0 MISS:          0 MSHR_MERGE:          0
cpu0->cpu0_L1I PREFETCH REQUESTED:          0 ISSUED:          0 USEFUL:          0 USELESS:          0
cpu0->cpu0_L1I AVERAGE MISS LATENCY: 147.8 cycles
cpu0->cpu0_L1D TOTAL        ACCESS:   22086469 HIT:   14593204 MISS:    7493265 MSHR_MERGE:    5963410
cpu0->cpu0_L1D LOAD         ACCESS:   19791470 HIT:   13077559 MISS:    6713911 MSHR_MERGE:    5359208
cpu0->cpu0_L1D RFO          ACCESS:          0 HIT:          0 MISS:          0 MSHR_MERGE:          0
cpu0->cpu0_L1D PREFETCH     ACCESS:          0 HIT:          0 MISS:          0 MSHR_MERGE:          0
cpu0->cpu0_L1D WRITE        ACCESS:    2221298 HIT:    1500478 MISS:     720820 MSHR_MERGE:     603991
cpu0->cpu0_L1D TRANSLATION  ACCESS:      73701 HIT:      15167 MISS:      58534 MSHR_MERGE:        211
cpu0->cpu0_L1D PREFETCH REQUESTED:          0 ISSUED:          0 USEFUL:          0 USELESS:          0
cpu0->cpu0_L1D AVERAGE MISS LATENCY: 115.2 cycles
cpu0->cpu0_ITLB TOTAL        ACCESS:    7308524 HIT:    7308523 MISS:          1 MSHR_MERGE:          0
cpu0->cpu0_ITLB LOAD         ACCESS:    7308524 HIT:    7308523 MISS:          1 MSHR_MERGE:          0
cpu0->cpu0_ITLB RFO          ACCESS:          0 HIT:          0 MISS:          0 MSHR_MERGE:          0
cpu0->cpu0_ITLB PREFETCH     ACCESS:          0 HIT:          0 MISS:          0 MSHR_MERGE:          0
cpu0->cpu0_ITLB WRITE        ACCESS:          0 HIT:          0 MISS:          0 MSHR_MERGE:          0
cpu0->cpu0_ITLB TRANSLATION  ACCESS:          0 HIT:          0 MISS:          0 MSHR_MERGE:          0
cpu0->cpu0_ITLB PREFETCH REQUESTED:          0 ISSUED:          0 USEFUL:          0 USELESS:          0
cpu0->cpu0_ITLB AVERAGE MISS LATENCY: 710 cycles
cpu0->cpu0_DTLB TOTAL        ACCESS:   21849353 HIT:   21453902 MISS:     395451 MSHR_MERGE:     276253
cpu0->cpu0_DTLB LOAD         ACCESS:   21849353 HIT:   21453902 MISS:     395451 MSHR_MERGE:     276253
cpu0->cpu0_DTLB RFO          ACCESS:          0 HIT:          0 MISS:          0 MSHR_MERGE:          0
cpu0->cpu0_DTLB PREFETCH     ACCESS:          0 HIT:          0 MISS:          0 MSHR_MERGE:          0
cpu0->cpu0_DTLB WRITE        ACCESS:          0 HIT:          0 MISS:          0 MSHR_MERGE:          0
cpu0->cpu0_DTLB TRANSLATION  ACCESS:          0 HIT:          0 MISS:          0 MSHR_MERGE:          0
cpu0->cpu0_DTLB PREFETCH REQUESTED:          0 ISSUED:          0 USEFUL:          0 USELESS:          0
cpu0->cpu0_DTLB AVERAGE MISS LATENCY: 79.47 cycles
cpu0->LLC TOTAL        ACCESS:    1446467 HIT:     300486 MISS:    1145981 MSHR_MERGE:          0
cpu0->LLC LOAD         ACCESS:    1154610 HIT:     148587 MISS:    1006023 MSHR_MERGE:          0
cpu0->LLC RFO          ACCESS:     107755 HIT:      22820 MISS:      84935 MSHR_MERGE:          0
cpu0->LLC PREFETCH     ACCESS:          0 HIT:          0 MISS:          0 MSHR_MERGE:          0
cpu0->LLC WRITE        ACCESS:     126015 HIT:     125658 MISS:        357 MSHR_MERGE:          0
cpu0->LLC TRANSLATION  ACCESS:      58087 HIT:       3421 MISS:      54666 MSHR_MERGE:          0
cpu0->LLC PREFETCH REQUESTED:          0 ISSUED:          0 USEFUL:          0 USELESS:          0
cpu0->LLC AVERAGE MISS LATENCY: 102 cycles

DRAM Statistics

Channel 0 RQ ROW_BUFFER_HIT:      42020
  ROW_BUFFER_MISS:    1103257
  AVG DBUS CONGESTED CYCLE: 6.083
Channel 0 WQ ROW_BUFFER_HIT:      38079
  ROW_BUFFER_MISS:      67022
  FULL:          0
Channel 0 REFRESHES ISSUED:       7308
[2025-09-15 17:15:10] END   suite=spec trace=482.sphinx3-1395B (rc=0)
