[2025-09-15 16:50:46] START suite=spec trace=483.xalancbmk-736B
CMD: ./bin/champsim -w 20000000 -i 100000000 /home/ho/prefetch_aware_insertion_ptr/traces/spec2k17/483.xalancbmk-736B.champsimtrace.xz
[VMEM] WARNING: physical memory size is smaller than virtual memory size.

*** ChampSim Multicore Out-of-Order Simulator ***
Warmup Instructions: 20000000
Simulation Instructions: 100000000
Number of CPUs: 1
Page size: 4096

Off-chip DRAM Size: 16 GiB Channels: 1 Width: 64-bit Data Rate: 3205 MT/s
Heartbeat CPU 0 instructions: 10000002 cycles: 2284252 heartbeat IPC: 4.378 cumulative IPC: 4.378 (Simulation time: 00 hr 00 min 34 sec)
Heartbeat CPU 0 instructions: 20000003 cycles: 4474073 heartbeat IPC: 4.567 cumulative IPC: 4.47 (Simulation time: 00 hr 01 min 06 sec)
Warmup finished CPU 0 instructions: 20000003 cycles: 4474073 cumulative IPC: 4.47 (Simulation time: 00 hr 01 min 06 sec)
Warmup complete CPU 0 instructions: 20000003 cycles: 4474073 cumulative IPC: 4.47 (Simulation time: 00 hr 01 min 06 sec)
Heartbeat CPU 0 instructions: 30000006 cycles: 9139503 heartbeat IPC: 2.143 cumulative IPC: 2.143 (Simulation time: 00 hr 01 min 53 sec)
Heartbeat CPU 0 instructions: 40000008 cycles: 12950217 heartbeat IPC: 2.624 cumulative IPC: 2.36 (Simulation time: 00 hr 02 min 36 sec)
Heartbeat CPU 0 instructions: 50000009 cycles: 16660767 heartbeat IPC: 2.695 cumulative IPC: 2.462 (Simulation time: 00 hr 03 min 20 sec)
Heartbeat CPU 0 instructions: 60000010 cycles: 20531188 heartbeat IPC: 2.584 cumulative IPC: 2.491 (Simulation time: 00 hr 04 min 05 sec)
Heartbeat CPU 0 instructions: 70000011 cycles: 24344173 heartbeat IPC: 2.623 cumulative IPC: 2.516 (Simulation time: 00 hr 04 min 50 sec)
Heartbeat CPU 0 instructions: 80000011 cycles: 28279531 heartbeat IPC: 2.541 cumulative IPC: 2.52 (Simulation time: 00 hr 05 min 36 sec)
Heartbeat CPU 0 instructions: 90000012 cycles: 32768171 heartbeat IPC: 2.228 cumulative IPC: 2.474 (Simulation time: 00 hr 06 min 20 sec)
Heartbeat CPU 0 instructions: 100000015 cycles: 37186582 heartbeat IPC: 2.263 cumulative IPC: 2.446 (Simulation time: 00 hr 07 min 08 sec)
Heartbeat CPU 0 instructions: 110000015 cycles: 41637946 heartbeat IPC: 2.247 cumulative IPC: 2.422 (Simulation time: 00 hr 07 min 54 sec)
Simulation finished CPU 0 instructions: 100000001 cycles: 41518882 cumulative IPC: 2.409 (Simulation time: 00 hr 08 min 41 sec)
Simulation complete CPU 0 instructions: 100000001 cycles: 41518882 cumulative IPC: 2.409 (Simulation time: 00 hr 08 min 41 sec)

ChampSim completed all CPUs

=== Simulation ===
CPU 0 runs /home/ho/prefetch_aware_insertion_ptr/traces/spec2k17/483.xalancbmk-736B.champsimtrace.xz

Region of Interest Statistics

CPU 0 cumulative IPC: 2.409 instructions: 100000001 cycles: 41518882
CPU 0 Branch Prediction Accuracy: 99.34% MPKI: 1.887 Average ROB Occupancy at Mispredict: 44.58
Branch type MPKI
BRANCH_DIRECT_JUMP: 0.00025
BRANCH_INDIRECT: 0.02024
BRANCH_CONDITIONAL: 1.657
BRANCH_DIRECT_CALL: 0.00771
BRANCH_INDIRECT_CALL: 0.02839
BRANCH_RETURN: 0.1729


====Backend Stall Breakdown====
ROB_STALL: 861061
LQ_STALL: 36164
SQ_STALL: 11041


====ROB Stall Breakdown====

== Average ==
ADDR_TRANS: 135.3693
REPLAY_LOAD: 23.065147
NON_REPLAY_LOAD: 10.713852

== Total ==
ADDR_TRANS: 32624
REPLAY_LOAD: 7081
NON_REPLAY_LOAD: 821356

== Counts ==
ADDR_TRANS: 241
REPLAY_LOAD: 307
NON_REPLAY_LOAD: 76663

cpu0->cpu0_STLB TOTAL        ACCESS:     686657 HIT:     678488 MISS:       8169 MSHR_MERGE:          0
cpu0->cpu0_STLB LOAD         ACCESS:     686657 HIT:     678488 MISS:       8169 MSHR_MERGE:          0
cpu0->cpu0_STLB RFO          ACCESS:          0 HIT:          0 MISS:          0 MSHR_MERGE:          0
cpu0->cpu0_STLB PREFETCH     ACCESS:          0 HIT:          0 MISS:          0 MSHR_MERGE:          0
cpu0->cpu0_STLB WRITE        ACCESS:          0 HIT:          0 MISS:          0 MSHR_MERGE:          0
cpu0->cpu0_STLB TRANSLATION  ACCESS:          0 HIT:          0 MISS:          0 MSHR_MERGE:          0
cpu0->cpu0_STLB PREFETCH REQUESTED:          0 ISSUED:          0 USEFUL:          0 USELESS:          0
cpu0->cpu0_STLB AVERAGE MISS LATENCY: 440.5 cycles
cpu0->cpu0_L2C TOTAL        ACCESS:    3406259 HIT:    3329097 MISS:      77162 MSHR_MERGE:          0
cpu0->cpu0_L2C LOAD         ACCESS:    3212701 HIT:    3183826 MISS:      28875 MSHR_MERGE:          0
cpu0->cpu0_L2C RFO          ACCESS:      58721 HIT:      23675 MISS:      35046 MSHR_MERGE:          0
cpu0->cpu0_L2C PREFETCH     ACCESS:          0 HIT:          0 MISS:          0 MSHR_MERGE:          0
cpu0->cpu0_L2C WRITE        ACCESS:     116247 HIT:     116247 MISS:          0 MSHR_MERGE:          0
cpu0->cpu0_L2C TRANSLATION  ACCESS:      18590 HIT:       5349 MISS:      13241 MSHR_MERGE:          0
cpu0->cpu0_L2C PREFETCH REQUESTED:          0 ISSUED:          0 USEFUL:          0 USELESS:          0
cpu0->cpu0_L2C AVERAGE MISS LATENCY: 145.7 cycles
cpu0->cpu0_L1I TOTAL        ACCESS:   15730144 HIT:   15721474 MISS:       8670 MSHR_MERGE:       1708
cpu0->cpu0_L1I LOAD         ACCESS:   15730144 HIT:   15721474 MISS:       8670 MSHR_MERGE:       1708
cpu0->cpu0_L1I RFO          ACCESS:          0 HIT:          0 MISS:          0 MSHR_MERGE:          0
cpu0->cpu0_L1I PREFETCH     ACCESS:          0 HIT:          0 MISS:          0 MSHR_MERGE:          0
cpu0->cpu0_L1I WRITE        ACCESS:          0 HIT:          0 MISS:          0 MSHR_MERGE:          0
cpu0->cpu0_L1I TRANSLATION  ACCESS:          0 HIT:          0 MISS:          0 MSHR_MERGE:          0
cpu0->cpu0_L1I PREFETCH REQUESTED:          0 ISSUED:          0 USEFUL:          0 USELESS:          0
cpu0->cpu0_L1I AVERAGE MISS LATENCY: 13.94 cycles
cpu0->cpu0_L1D TOTAL        ACCESS:   19418603 HIT:    5766441 MISS:   13652162 MSHR_MERGE:   10369079
cpu0->cpu0_L1D LOAD         ACCESS:   17793013 HIT:    4488651 MISS:   13304362 MSHR_MERGE:   10098622
cpu0->cpu0_L1D RFO          ACCESS:          0 HIT:          0 MISS:          0 MSHR_MERGE:          0
cpu0->cpu0_L1D PREFETCH     ACCESS:          0 HIT:          0 MISS:          0 MSHR_MERGE:          0
cpu0->cpu0_L1D WRITE        ACCESS:    1605672 HIT:    1276510 MISS:     329162 MSHR_MERGE:     270409
cpu0->cpu0_L1D TRANSLATION  ACCESS:      19918 HIT:       1280 MISS:      18638 MSHR_MERGE:         48
cpu0->cpu0_L1D PREFETCH REQUESTED:          0 ISSUED:          0 USEFUL:          0 USELESS:          0
cpu0->cpu0_L1D AVERAGE MISS LATENCY: 15.52 cycles
cpu0->cpu0_ITLB TOTAL        ACCESS:   15526588 HIT:   15516377 MISS:      10211 MSHR_MERGE:       4352
cpu0->cpu0_ITLB LOAD         ACCESS:   15526588 HIT:   15516377 MISS:      10211 MSHR_MERGE:       4352
cpu0->cpu0_ITLB RFO          ACCESS:          0 HIT:          0 MISS:          0 MSHR_MERGE:          0
cpu0->cpu0_ITLB PREFETCH     ACCESS:          0 HIT:          0 MISS:          0 MSHR_MERGE:          0
cpu0->cpu0_ITLB WRITE        ACCESS:          0 HIT:          0 MISS:          0 MSHR_MERGE:          0
cpu0->cpu0_ITLB TRANSLATION  ACCESS:          0 HIT:          0 MISS:          0 MSHR_MERGE:          0
cpu0->cpu0_ITLB PREFETCH REQUESTED:          0 ISSUED:          0 USEFUL:          0 USELESS:          0
cpu0->cpu0_ITLB AVERAGE MISS LATENCY: 7.141 cycles
cpu0->cpu0_DTLB TOTAL        ACCESS:   19241026 HIT:   18103982 MISS:    1137044 MSHR_MERGE:     456246
cpu0->cpu0_DTLB LOAD         ACCESS:   19241026 HIT:   18103982 MISS:    1137044 MSHR_MERGE:     456246
cpu0->cpu0_DTLB RFO          ACCESS:          0 HIT:          0 MISS:          0 MSHR_MERGE:          0
cpu0->cpu0_DTLB PREFETCH     ACCESS:          0 HIT:          0 MISS:          0 MSHR_MERGE:          0
cpu0->cpu0_DTLB WRITE        ACCESS:          0 HIT:          0 MISS:          0 MSHR_MERGE:          0
cpu0->cpu0_DTLB TRANSLATION  ACCESS:          0 HIT:          0 MISS:          0 MSHR_MERGE:          0
cpu0->cpu0_DTLB PREFETCH REQUESTED:          0 ISSUED:          0 USEFUL:          0 USELESS:          0
cpu0->cpu0_DTLB AVERAGE MISS LATENCY: 10.29 cycles
cpu0->LLC TOTAL        ACCESS:     130747 HIT:      64014 MISS:      66733 MSHR_MERGE:          0
cpu0->LLC LOAD         ACCESS:      28875 HIT:       7856 MISS:      21019 MSHR_MERGE:          0
cpu0->LLC RFO          ACCESS:      35046 HIT:        321 MISS:      34725 MSHR_MERGE:          0
cpu0->LLC PREFETCH     ACCESS:          0 HIT:          0 MISS:          0 MSHR_MERGE:          0
cpu0->LLC WRITE        ACCESS:      53585 HIT:      53373 MISS:        212 MSHR_MERGE:          0
cpu0->LLC TRANSLATION  ACCESS:      13241 HIT:       2464 MISS:      10777 MSHR_MERGE:          0
cpu0->LLC PREFETCH REQUESTED:          0 ISSUED:          0 USEFUL:          0 USELESS:          0
cpu0->LLC AVERAGE MISS LATENCY: 134.8 cycles

DRAM Statistics

Channel 0 RQ ROW_BUFFER_HIT:       5808
  ROW_BUFFER_MISS:      60713
  AVG DBUS CONGESTED CYCLE: 4.824
Channel 0 WQ ROW_BUFFER_HIT:       5666
  ROW_BUFFER_MISS:      54706
  FULL:          0
Channel 0 REFRESHES ISSUED:       3460
[2025-09-15 16:59:27] END   suite=spec trace=483.xalancbmk-736B (rc=0)
