[2025-09-15 18:25:28] START suite=spec trace=602.gcc_s-2226B
CMD: ./bin/champsim -w 20000000 -i 100000000 /home/ho/prefetch_aware_insertion_ptr/traces/spec2k17/602.gcc_s-2226B.champsimtrace.xz
[VMEM] WARNING: physical memory size is smaller than virtual memory size.

*** ChampSim Multicore Out-of-Order Simulator ***
Warmup Instructions: 20000000
Simulation Instructions: 100000000
Number of CPUs: 1
Page size: 4096

Off-chip DRAM Size: 16 GiB Channels: 1 Width: 64-bit Data Rate: 3205 MT/s
Heartbeat CPU 0 instructions: 10000004 cycles: 6194263 heartbeat IPC: 1.614 cumulative IPC: 1.614 (Simulation time: 00 hr 01 min 06 sec)
Heartbeat CPU 0 instructions: 20000004 cycles: 12398294 heartbeat IPC: 1.612 cumulative IPC: 1.613 (Simulation time: 00 hr 02 min 11 sec)
Warmup finished CPU 0 instructions: 20000004 cycles: 12398294 cumulative IPC: 1.613 (Simulation time: 00 hr 02 min 11 sec)
Warmup complete CPU 0 instructions: 20000004 cycles: 12398294 cumulative IPC: 1.613 (Simulation time: 00 hr 02 min 11 sec)
Heartbeat CPU 0 instructions: 30000004 cycles: 108915967 heartbeat IPC: 0.1036 cumulative IPC: 0.1036 (Simulation time: 00 hr 14 min 51 sec)
Heartbeat CPU 0 instructions: 40000004 cycles: 203621652 heartbeat IPC: 0.1056 cumulative IPC: 0.1046 (Simulation time: 00 hr 27 min 04 sec)
Heartbeat CPU 0 instructions: 50000004 cycles: 294689179 heartbeat IPC: 0.1098 cumulative IPC: 0.1063 (Simulation time: 00 hr 38 min 44 sec)
Heartbeat CPU 0 instructions: 60000007 cycles: 386508838 heartbeat IPC: 0.1089 cumulative IPC: 0.1069 (Simulation time: 00 hr 50 min 03 sec)
Heartbeat CPU 0 instructions: 70000008 cycles: 477977286 heartbeat IPC: 0.1093 cumulative IPC: 0.1074 (Simulation time: 01 hr 00 min 08 sec)
Heartbeat CPU 0 instructions: 80000009 cycles: 568891100 heartbeat IPC: 0.11 cumulative IPC: 0.1078 (Simulation time: 01 hr 06 min 00 sec)
Heartbeat CPU 0 instructions: 90000009 cycles: 660686071 heartbeat IPC: 0.1089 cumulative IPC: 0.108 (Simulation time: 01 hr 11 min 54 sec)
Heartbeat CPU 0 instructions: 100000009 cycles: 752368169 heartbeat IPC: 0.1091 cumulative IPC: 0.1081 (Simulation time: 01 hr 17 min 46 sec)
Heartbeat CPU 0 instructions: 110000010 cycles: 843833725 heartbeat IPC: 0.1093 cumulative IPC: 0.1082 (Simulation time: 01 hr 23 min 38 sec)
Simulation finished CPU 0 instructions: 100000004 cycles: 921344239 cumulative IPC: 0.1085 (Simulation time: 01 hr 29 min 48 sec)
Simulation complete CPU 0 instructions: 100000004 cycles: 921344239 cumulative IPC: 0.1085 (Simulation time: 01 hr 29 min 48 sec)

ChampSim completed all CPUs

=== Simulation ===
CPU 0 runs /home/ho/prefetch_aware_insertion_ptr/traces/spec2k17/602.gcc_s-2226B.champsimtrace.xz

Region of Interest Statistics

CPU 0 cumulative IPC: 0.1085 instructions: 100000004 cycles: 921344239
CPU 0 Branch Prediction Accuracy: 99.08% MPKI: 3.264 Average ROB Occupancy at Mispredict: 103.4
Branch type MPKI
BRANCH_DIRECT_JUMP: 0.07736
BRANCH_INDIRECT: 0
BRANCH_CONDITIONAL: 3.184
BRANCH_DIRECT_CALL: 0.0023
BRANCH_INDIRECT_CALL: 0
BRANCH_RETURN: 6e-05


====Backend Stall Breakdown====
ROB_STALL: 7399324
LQ_STALL: 527250244
SQ_STALL: 0


====ROB Stall Breakdown====

== Average ==
ADDR_TRANS: 197.1125
REPLAY_LOAD: 6.402914
NON_REPLAY_LOAD: 4.1829324

== Total ==
ADDR_TRANS: 266299
REPLAY_LOAD: 169626
NON_REPLAY_LOAD: 6963399

== Counts ==
ADDR_TRANS: 1351
REPLAY_LOAD: 26492
NON_REPLAY_LOAD: 1664717

cpu0->cpu0_STLB TOTAL        ACCESS:     136386 HIT:       4866 MISS:     131520 MSHR_MERGE:          0
cpu0->cpu0_STLB LOAD         ACCESS:     136386 HIT:       4866 MISS:     131520 MSHR_MERGE:          0
cpu0->cpu0_STLB RFO          ACCESS:          0 HIT:          0 MISS:          0 MSHR_MERGE:          0
cpu0->cpu0_STLB PREFETCH     ACCESS:          0 HIT:          0 MISS:          0 MSHR_MERGE:          0
cpu0->cpu0_STLB WRITE        ACCESS:          0 HIT:          0 MISS:          0 MSHR_MERGE:          0
cpu0->cpu0_STLB TRANSLATION  ACCESS:          0 HIT:          0 MISS:          0 MSHR_MERGE:          0
cpu0->cpu0_STLB PREFETCH REQUESTED:          0 ISSUED:          0 USEFUL:          0 USELESS:          0
cpu0->cpu0_STLB AVERAGE MISS LATENCY: 252 cycles
cpu0->cpu0_L2C TOTAL        ACCESS:    7184059 HIT:      24954 MISS:    7159105 MSHR_MERGE:          0
cpu0->cpu0_L2C LOAD         ACCESS:    7000300 HIT:       7852 MISS:    6992448 MSHR_MERGE:          0
cpu0->cpu0_L2C RFO          ACCESS:       2781 HIT:          4 MISS:       2777 MSHR_MERGE:          0
cpu0->cpu0_L2C PREFETCH     ACCESS:          0 HIT:          0 MISS:          0 MSHR_MERGE:          0
cpu0->cpu0_L2C WRITE        ACCESS:      11614 HIT:      11342 MISS:        272 MSHR_MERGE:          0
cpu0->cpu0_L2C TRANSLATION  ACCESS:     169364 HIT:       5756 MISS:     163608 MSHR_MERGE:          0
cpu0->cpu0_L2C PREFETCH REQUESTED:          0 ISSUED:          0 USEFUL:          0 USELESS:          0
cpu0->cpu0_L2C AVERAGE MISS LATENCY: 107.6 cycles
cpu0->cpu0_L1I TOTAL        ACCESS:   11583322 HIT:   11583296 MISS:         26 MSHR_MERGE:          1
cpu0->cpu0_L1I LOAD         ACCESS:   11583322 HIT:   11583296 MISS:         26 MSHR_MERGE:          1
cpu0->cpu0_L1I RFO          ACCESS:          0 HIT:          0 MISS:          0 MSHR_MERGE:          0
cpu0->cpu0_L1I PREFETCH     ACCESS:          0 HIT:          0 MISS:          0 MSHR_MERGE:          0
cpu0->cpu0_L1I WRITE        ACCESS:          0 HIT:          0 MISS:          0 MSHR_MERGE:          0
cpu0->cpu0_L1I TRANSLATION  ACCESS:          0 HIT:          0 MISS:          0 MSHR_MERGE:          0
cpu0->cpu0_L1I PREFETCH REQUESTED:          0 ISSUED:          0 USEFUL:          0 USELESS:          0
cpu0->cpu0_L1I AVERAGE MISS LATENCY: 133 cycles
cpu0->cpu0_L1D TOTAL        ACCESS:   26060373 HIT:    9689361 MISS:   16371012 MSHR_MERGE:    9198591
cpu0->cpu0_L1D LOAD         ACCESS:   24454564 HIT:    8255761 MISS:   16198803 MSHR_MERGE:    9198527
cpu0->cpu0_L1D RFO          ACCESS:          0 HIT:          0 MISS:          0 MSHR_MERGE:          0
cpu0->cpu0_L1D PREFETCH     ACCESS:          0 HIT:          0 MISS:          0 MSHR_MERGE:          0
cpu0->cpu0_L1D WRITE        ACCESS:    1340009 HIT:    1337203 MISS:       2806 MSHR_MERGE:         25
cpu0->cpu0_L1D TRANSLATION  ACCESS:     265800 HIT:      96397 MISS:     169403 MSHR_MERGE:         39
cpu0->cpu0_L1D PREFETCH REQUESTED:          0 ISSUED:          0 USEFUL:          0 USELESS:          0
cpu0->cpu0_L1D AVERAGE MISS LATENCY: 120.2 cycles
cpu0->cpu0_ITLB TOTAL        ACCESS:   11575289 HIT:   11575289 MISS:          0 MSHR_MERGE:          0
cpu0->cpu0_ITLB LOAD         ACCESS:   11575289 HIT:   11575289 MISS:          0 MSHR_MERGE:          0
cpu0->cpu0_ITLB RFO          ACCESS:          0 HIT:          0 MISS:          0 MSHR_MERGE:          0
cpu0->cpu0_ITLB PREFETCH     ACCESS:          0 HIT:          0 MISS:          0 MSHR_MERGE:          0
cpu0->cpu0_ITLB WRITE        ACCESS:          0 HIT:          0 MISS:          0 MSHR_MERGE:          0
cpu0->cpu0_ITLB TRANSLATION  ACCESS:          0 HIT:          0 MISS:          0 MSHR_MERGE:          0
cpu0->cpu0_ITLB PREFETCH REQUESTED:          0 ISSUED:          0 USEFUL:          0 USELESS:          0
cpu0->cpu0_ITLB AVERAGE MISS LATENCY: - cycles
cpu0->cpu0_DTLB TOTAL        ACCESS:   25637657 HIT:   25340501 MISS:     297156 MSHR_MERGE:     160770
cpu0->cpu0_DTLB LOAD         ACCESS:   25637657 HIT:   25340501 MISS:     297156 MSHR_MERGE:     160770
cpu0->cpu0_DTLB RFO          ACCESS:          0 HIT:          0 MISS:          0 MSHR_MERGE:          0
cpu0->cpu0_DTLB PREFETCH     ACCESS:          0 HIT:          0 MISS:          0 MSHR_MERGE:          0
cpu0->cpu0_DTLB WRITE        ACCESS:          0 HIT:          0 MISS:          0 MSHR_MERGE:          0
cpu0->cpu0_DTLB TRANSLATION  ACCESS:          0 HIT:          0 MISS:          0 MSHR_MERGE:          0
cpu0->cpu0_DTLB PREFETCH REQUESTED:          0 ISSUED:          0 USEFUL:          0 USELESS:          0
cpu0->cpu0_DTLB AVERAGE MISS LATENCY: 248.9 cycles
cpu0->LLC TOTAL        ACCESS:    7170274 HIT:      15213 MISS:    7155061 MSHR_MERGE:          0
cpu0->LLC LOAD         ACCESS:    6992448 HIT:       2873 MISS:    6989575 MSHR_MERGE:          0
cpu0->LLC RFO          ACCESS:       2777 HIT:          0 MISS:       2777 MSHR_MERGE:          0
cpu0->LLC PREFETCH     ACCESS:          0 HIT:          0 MISS:          0 MSHR_MERGE:          0
cpu0->LLC WRITE        ACCESS:      11441 HIT:      11289 MISS:        152 MSHR_MERGE:          0
cpu0->LLC TRANSLATION  ACCESS:     163608 HIT:       1051 MISS:     162557 MSHR_MERGE:          0
cpu0->LLC PREFETCH REQUESTED:          0 ISSUED:          0 USEFUL:          0 USELESS:          0
cpu0->LLC AVERAGE MISS LATENCY: 77.13 cycles

DRAM Statistics

Channel 0 RQ ROW_BUFFER_HIT:    1992785
  ROW_BUFFER_MISS:    5162124
  AVG DBUS CONGESTED CYCLE: 12.23
Channel 0 WQ ROW_BUFFER_HIT:        826
  ROW_BUFFER_MISS:      10503
  FULL:          0
Channel 0 REFRESHES ISSUED:      76778
[2025-09-15 19:55:16] END   suite=spec trace=602.gcc_s-2226B (rc=0)
