[2025-09-15 17:36:03] START suite=spec trace=605.mcf_s-472B
CMD: ./bin/champsim -w 20000000 -i 100000000 /home/ho/prefetch_aware_insertion_ptr/traces/spec2k17/605.mcf_s-472B.champsimtrace.xz
[VMEM] WARNING: physical memory size is smaller than virtual memory size.

*** ChampSim Multicore Out-of-Order Simulator ***
Warmup Instructions: 20000000
Simulation Instructions: 100000000
Number of CPUs: 1
Page size: 4096

Off-chip DRAM Size: 16 GiB Channels: 1 Width: 64-bit Data Rate: 3205 MT/s
Heartbeat CPU 0 instructions: 10000001 cycles: 4496143 heartbeat IPC: 2.224 cumulative IPC: 2.224 (Simulation time: 00 hr 00 min 55 sec)
Heartbeat CPU 0 instructions: 20000002 cycles: 8405336 heartbeat IPC: 2.558 cumulative IPC: 2.379 (Simulation time: 00 hr 01 min 46 sec)
Warmup finished CPU 0 instructions: 20000002 cycles: 8405336 cumulative IPC: 2.379 (Simulation time: 00 hr 01 min 46 sec)
Warmup complete CPU 0 instructions: 20000002 cycles: 8405336 cumulative IPC: 2.379 (Simulation time: 00 hr 01 min 46 sec)
Heartbeat CPU 0 instructions: 30000004 cycles: 44400112 heartbeat IPC: 0.2778 cumulative IPC: 0.2778 (Simulation time: 00 hr 06 min 18 sec)
Heartbeat CPU 0 instructions: 40000004 cycles: 69276968 heartbeat IPC: 0.402 cumulative IPC: 0.3286 (Simulation time: 00 hr 09 min 32 sec)
Heartbeat CPU 0 instructions: 50000007 cycles: 94633323 heartbeat IPC: 0.3944 cumulative IPC: 0.3479 (Simulation time: 00 hr 12 min 48 sec)
Heartbeat CPU 0 instructions: 60000010 cycles: 119766225 heartbeat IPC: 0.3979 cumulative IPC: 0.3592 (Simulation time: 00 hr 16 min 06 sec)
Heartbeat CPU 0 instructions: 70000013 cycles: 143576529 heartbeat IPC: 0.42 cumulative IPC: 0.3699 (Simulation time: 00 hr 19 min 15 sec)
Heartbeat CPU 0 instructions: 80000014 cycles: 174051797 heartbeat IPC: 0.3281 cumulative IPC: 0.3622 (Simulation time: 00 hr 22 min 55 sec)
Heartbeat CPU 0 instructions: 90000015 cycles: 197383631 heartbeat IPC: 0.4286 cumulative IPC: 0.3704 (Simulation time: 00 hr 25 min 55 sec)
Heartbeat CPU 0 instructions: 100000017 cycles: 225826432 heartbeat IPC: 0.3516 cumulative IPC: 0.3679 (Simulation time: 00 hr 29 min 35 sec)
Heartbeat CPU 0 instructions: 110000020 cycles: 249017336 heartbeat IPC: 0.4312 cumulative IPC: 0.374 (Simulation time: 00 hr 32 min 42 sec)
Simulation finished CPU 0 instructions: 100000000 cycles: 267329685 cumulative IPC: 0.3741 (Simulation time: 00 hr 36 min 14 sec)
Simulation complete CPU 0 instructions: 100000000 cycles: 267329685 cumulative IPC: 0.3741 (Simulation time: 00 hr 36 min 14 sec)

ChampSim completed all CPUs

=== Simulation ===
CPU 0 runs /home/ho/prefetch_aware_insertion_ptr/traces/spec2k17/605.mcf_s-472B.champsimtrace.xz

Region of Interest Statistics

CPU 0 cumulative IPC: 0.3741 instructions: 100000000 cycles: 267329685
CPU 0 Branch Prediction Accuracy: 98.31% MPKI: 1.929 Average ROB Occupancy at Mispredict: 137.9
Branch type MPKI
BRANCH_DIRECT_JUMP: 0
BRANCH_INDIRECT: 0
BRANCH_CONDITIONAL: 1.929
BRANCH_DIRECT_CALL: 0
BRANCH_INDIRECT_CALL: 0
BRANCH_RETURN: 0


====Backend Stall Breakdown====
ROB_STALL: 68768573
LQ_STALL: 8024905
SQ_STALL: 46834132


====ROB Stall Breakdown====

== Average ==
ADDR_TRANS: 54.64874
REPLAY_LOAD: 53.581978
NON_REPLAY_LOAD: 76.72432

== Total ==
ADDR_TRANS: 453202
REPLAY_LOAD: 2031775
NON_REPLAY_LOAD: 66283596

== Counts ==
ADDR_TRANS: 8293
REPLAY_LOAD: 37919
NON_REPLAY_LOAD: 863919

cpu0->cpu0_STLB TOTAL        ACCESS:     275439 HIT:     144221 MISS:     131218 MSHR_MERGE:          0
cpu0->cpu0_STLB LOAD         ACCESS:     275439 HIT:     144221 MISS:     131218 MSHR_MERGE:          0
cpu0->cpu0_STLB RFO          ACCESS:          0 HIT:          0 MISS:          0 MSHR_MERGE:          0
cpu0->cpu0_STLB PREFETCH     ACCESS:          0 HIT:          0 MISS:          0 MSHR_MERGE:          0
cpu0->cpu0_STLB WRITE        ACCESS:          0 HIT:          0 MISS:          0 MSHR_MERGE:          0
cpu0->cpu0_STLB TRANSLATION  ACCESS:          0 HIT:          0 MISS:          0 MSHR_MERGE:          0
cpu0->cpu0_STLB PREFETCH REQUESTED:          0 ISSUED:          0 USEFUL:          0 USELESS:          0
cpu0->cpu0_STLB AVERAGE MISS LATENCY: 251.1 cycles
cpu0->cpu0_L2C TOTAL        ACCESS:    5683775 HIT:     613596 MISS:    5070179 MSHR_MERGE:          0
cpu0->cpu0_L2C LOAD         ACCESS:    4752913 HIT:      68555 MISS:    4684358 MSHR_MERGE:          0
cpu0->cpu0_L2C RFO          ACCESS:     246044 HIT:      13907 MISS:     232137 MSHR_MERGE:          0
cpu0->cpu0_L2C PREFETCH     ACCESS:          0 HIT:          0 MISS:          0 MSHR_MERGE:          0
cpu0->cpu0_L2C WRITE        ACCESS:     529829 HIT:     526872 MISS:       2957 MSHR_MERGE:          0
cpu0->cpu0_L2C TRANSLATION  ACCESS:     154989 HIT:       4262 MISS:     150727 MSHR_MERGE:          0
cpu0->cpu0_L2C PREFETCH REQUESTED:          0 ISSUED:          0 USEFUL:          0 USELESS:          0
cpu0->cpu0_L2C AVERAGE MISS LATENCY: 142.9 cycles
cpu0->cpu0_L1I TOTAL        ACCESS:   16528804 HIT:   16528804 MISS:          0 MSHR_MERGE:          0
cpu0->cpu0_L1I LOAD         ACCESS:   16528804 HIT:   16528804 MISS:          0 MSHR_MERGE:          0
cpu0->cpu0_L1I RFO          ACCESS:          0 HIT:          0 MISS:          0 MSHR_MERGE:          0
cpu0->cpu0_L1I PREFETCH     ACCESS:          0 HIT:          0 MISS:          0 MSHR_MERGE:          0
cpu0->cpu0_L1I WRITE        ACCESS:          0 HIT:          0 MISS:          0 MSHR_MERGE:          0
cpu0->cpu0_L1I TRANSLATION  ACCESS:          0 HIT:          0 MISS:          0 MSHR_MERGE:          0
cpu0->cpu0_L1I PREFETCH REQUESTED:          0 ISSUED:          0 USEFUL:          0 USELESS:          0
cpu0->cpu0_L1I AVERAGE MISS LATENCY: - cycles
cpu0->cpu0_L1D TOTAL        ACCESS:   49926348 HIT:   43060781 MISS:    6865567 MSHR_MERGE:    1711620
cpu0->cpu0_L1D LOAD         ACCESS:   26705811 HIT:   20951584 MISS:    5754227 MSHR_MERGE:    1001314
cpu0->cpu0_L1D RFO          ACCESS:          0 HIT:          0 MISS:          0 MSHR_MERGE:          0
cpu0->cpu0_L1D PREFETCH     ACCESS:          0 HIT:          0 MISS:          0 MSHR_MERGE:          0
cpu0->cpu0_L1D WRITE        ACCESS:   22957992 HIT:   22001706 MISS:     956286 MSHR_MERGE:     710241
cpu0->cpu0_L1D TRANSLATION  ACCESS:     262545 HIT:     107491 MISS:     155054 MSHR_MERGE:         65
cpu0->cpu0_L1D PREFETCH REQUESTED:          0 ISSUED:          0 USEFUL:          0 USELESS:          0
cpu0->cpu0_L1D AVERAGE MISS LATENCY: 153.4 cycles
cpu0->cpu0_ITLB TOTAL        ACCESS:   14683076 HIT:   14683076 MISS:          0 MSHR_MERGE:          0
cpu0->cpu0_ITLB LOAD         ACCESS:   14683076 HIT:   14683076 MISS:          0 MSHR_MERGE:          0
cpu0->cpu0_ITLB RFO          ACCESS:          0 HIT:          0 MISS:          0 MSHR_MERGE:          0
cpu0->cpu0_ITLB PREFETCH     ACCESS:          0 HIT:          0 MISS:          0 MSHR_MERGE:          0
cpu0->cpu0_ITLB WRITE        ACCESS:          0 HIT:          0 MISS:          0 MSHR_MERGE:          0
cpu0->cpu0_ITLB TRANSLATION  ACCESS:          0 HIT:          0 MISS:          0 MSHR_MERGE:          0
cpu0->cpu0_ITLB PREFETCH REQUESTED:          0 ISSUED:          0 USEFUL:          0 USELESS:          0
cpu0->cpu0_ITLB AVERAGE MISS LATENCY: - cycles
cpu0->cpu0_DTLB TOTAL        ACCESS:   46433135 HIT:   45867672 MISS:     565463 MSHR_MERGE:     290024
cpu0->cpu0_DTLB LOAD         ACCESS:   46433135 HIT:   45867672 MISS:     565463 MSHR_MERGE:     290024
cpu0->cpu0_DTLB RFO          ACCESS:          0 HIT:          0 MISS:          0 MSHR_MERGE:          0
cpu0->cpu0_DTLB PREFETCH     ACCESS:          0 HIT:          0 MISS:          0 MSHR_MERGE:          0
cpu0->cpu0_DTLB WRITE        ACCESS:          0 HIT:          0 MISS:          0 MSHR_MERGE:          0
cpu0->cpu0_DTLB TRANSLATION  ACCESS:          0 HIT:          0 MISS:          0 MSHR_MERGE:          0
cpu0->cpu0_DTLB PREFETCH REQUESTED:          0 ISSUED:          0 USEFUL:          0 USELESS:          0
cpu0->cpu0_DTLB AVERAGE MISS LATENCY: 125.1 cycles
cpu0->LLC TOTAL        ACCESS:    5534580 HIT:     472188 MISS:    5062392 MSHR_MERGE:          0
cpu0->LLC LOAD         ACCESS:    4684358 HIT:       6106 MISS:    4678252 MSHR_MERGE:          0
cpu0->LLC RFO          ACCESS:     232137 HIT:        115 MISS:     232022 MSHR_MERGE:          0
cpu0->LLC PREFETCH     ACCESS:          0 HIT:          0 MISS:          0 MSHR_MERGE:          0
cpu0->LLC WRITE        ACCESS:     467358 HIT:     465376 MISS:       1982 MSHR_MERGE:          0
cpu0->LLC TRANSLATION  ACCESS:     150727 HIT:        591 MISS:     150136 MSHR_MERGE:          0
cpu0->LLC PREFETCH REQUESTED:          0 ISSUED:          0 USEFUL:          0 USELESS:          0
cpu0->LLC AVERAGE MISS LATENCY: 112.5 cycles

DRAM Statistics

Channel 0 RQ ROW_BUFFER_HIT:      51169
  ROW_BUFFER_MISS:    5009189
  AVG DBUS CONGESTED CYCLE: 3.398
Channel 0 WQ ROW_BUFFER_HIT:      70338
  ROW_BUFFER_MISS:     387137
  FULL:          0
Channel 0 REFRESHES ISSUED:      22277
[2025-09-15 18:12:17] END   suite=spec trace=605.mcf_s-472B (rc=0)
