[2025-09-15 15:47:11] START suite=spec trace=605.mcf_s-665B
CMD: ./bin/champsim -w 20000000 -i 100000000 /home/ho/prefetch_aware_insertion_ptr/traces/spec2k17/605.mcf_s-665B.champsimtrace.xz
[VMEM] WARNING: physical memory size is smaller than virtual memory size.

*** ChampSim Multicore Out-of-Order Simulator ***
Warmup Instructions: 20000000
Simulation Instructions: 100000000
Number of CPUs: 1
Page size: 4096

Off-chip DRAM Size: 16 GiB Channels: 1 Width: 64-bit Data Rate: 3205 MT/s
Heartbeat CPU 0 instructions: 10000004 cycles: 2902814 heartbeat IPC: 3.445 cumulative IPC: 3.445 (Simulation time: 00 hr 00 min 41 sec)
Warmup finished CPU 0 instructions: 20000002 cycles: 5724129 cumulative IPC: 3.494 (Simulation time: 00 hr 01 min 23 sec)
Warmup complete CPU 0 instructions: 20000002 cycles: 5724129 cumulative IPC: 3.494 (Simulation time: 00 hr 01 min 23 sec)
Heartbeat CPU 0 instructions: 20000007 cycles: 5724130 heartbeat IPC: 3.544 cumulative IPC: 5 (Simulation time: 00 hr 01 min 23 sec)
Heartbeat CPU 0 instructions: 30000007 cycles: 35154951 heartbeat IPC: 0.3398 cumulative IPC: 0.3398 (Simulation time: 00 hr 04 min 00 sec)
Heartbeat CPU 0 instructions: 40000008 cycles: 65584798 heartbeat IPC: 0.3286 cumulative IPC: 0.3341 (Simulation time: 00 hr 06 min 29 sec)
Heartbeat CPU 0 instructions: 50000009 cycles: 94977771 heartbeat IPC: 0.3402 cumulative IPC: 0.3361 (Simulation time: 00 hr 09 min 05 sec)
Heartbeat CPU 0 instructions: 60000013 cycles: 125353773 heartbeat IPC: 0.3292 cumulative IPC: 0.3344 (Simulation time: 00 hr 11 min 45 sec)
Heartbeat CPU 0 instructions: 70000015 cycles: 155038211 heartbeat IPC: 0.3369 cumulative IPC: 0.3349 (Simulation time: 00 hr 14 min 20 sec)
Heartbeat CPU 0 instructions: 80000016 cycles: 185217978 heartbeat IPC: 0.3313 cumulative IPC: 0.3343 (Simulation time: 00 hr 16 min 53 sec)
Heartbeat CPU 0 instructions: 90000020 cycles: 215157584 heartbeat IPC: 0.334 cumulative IPC: 0.3342 (Simulation time: 00 hr 19 min 09 sec)
Heartbeat CPU 0 instructions: 100000020 cycles: 239906234 heartbeat IPC: 0.4041 cumulative IPC: 0.3416 (Simulation time: 00 hr 21 min 09 sec)
Heartbeat CPU 0 instructions: 110000021 cycles: 264703269 heartbeat IPC: 0.4033 cumulative IPC: 0.3475 (Simulation time: 00 hr 23 min 25 sec)
Simulation finished CPU 0 instructions: 100000002 cycles: 283581214 cumulative IPC: 0.3526 (Simulation time: 00 hr 25 min 35 sec)
Simulation complete CPU 0 instructions: 100000002 cycles: 283581214 cumulative IPC: 0.3526 (Simulation time: 00 hr 25 min 35 sec)

ChampSim completed all CPUs

=== Simulation ===
CPU 0 runs /home/ho/prefetch_aware_insertion_ptr/traces/spec2k17/605.mcf_s-665B.champsimtrace.xz

Region of Interest Statistics

CPU 0 cumulative IPC: 0.3526 instructions: 100000002 cycles: 283581214
CPU 0 Branch Prediction Accuracy: 86.77% MPKI: 32.9 Average ROB Occupancy at Mispredict: 14.59
Branch type MPKI
BRANCH_DIRECT_JUMP: 0.2473
BRANCH_INDIRECT: 0
BRANCH_CONDITIONAL: 32.65
BRANCH_DIRECT_CALL: 0
BRANCH_INDIRECT_CALL: 0.00287
BRANCH_RETURN: 0


====Backend Stall Breakdown====
ROB_STALL: 214080
LQ_STALL: 257830
SQ_STALL: 123942


====ROB Stall Breakdown====

== Average ==
ADDR_TRANS: 126.10959
REPLAY_LOAD: 40.858894
NON_REPLAY_LOAD: 24.872746

== Total ==
ADDR_TRANS: 18412
REPLAY_LOAD: 6660
NON_REPLAY_LOAD: 189008

== Counts ==
ADDR_TRANS: 146
REPLAY_LOAD: 163
NON_REPLAY_LOAD: 7599

cpu0->cpu0_STLB TOTAL        ACCESS:    1677904 HIT:    1652731 MISS:      25173 MSHR_MERGE:          0
cpu0->cpu0_STLB LOAD         ACCESS:    1677904 HIT:    1652731 MISS:      25173 MSHR_MERGE:          0
cpu0->cpu0_STLB RFO          ACCESS:          0 HIT:          0 MISS:          0 MSHR_MERGE:          0
cpu0->cpu0_STLB PREFETCH     ACCESS:          0 HIT:          0 MISS:          0 MSHR_MERGE:          0
cpu0->cpu0_STLB WRITE        ACCESS:          0 HIT:          0 MISS:          0 MSHR_MERGE:          0
cpu0->cpu0_STLB TRANSLATION  ACCESS:          0 HIT:          0 MISS:          0 MSHR_MERGE:          0
cpu0->cpu0_STLB PREFETCH REQUESTED:          0 ISSUED:          0 USEFUL:          0 USELESS:          0
cpu0->cpu0_STLB AVERAGE MISS LATENCY: 375.6 cycles
cpu0->cpu0_L2C TOTAL        ACCESS:    4302645 HIT:    1789238 MISS:    2513407 MSHR_MERGE:          0
cpu0->cpu0_L2C LOAD         ACCESS:    3361117 HIT:    1058931 MISS:    2302186 MSHR_MERGE:          0
cpu0->cpu0_L2C RFO          ACCESS:     380066 HIT:     206095 MISS:     173971 MSHR_MERGE:          0
cpu0->cpu0_L2C PREFETCH     ACCESS:          0 HIT:          0 MISS:          0 MSHR_MERGE:          0
cpu0->cpu0_L2C WRITE        ACCESS:     524018 HIT:     523645 MISS:        373 MSHR_MERGE:          0
cpu0->cpu0_L2C TRANSLATION  ACCESS:      37444 HIT:        567 MISS:      36877 MSHR_MERGE:          0
cpu0->cpu0_L2C PREFETCH REQUESTED:          0 ISSUED:          0 USEFUL:          0 USELESS:          0
cpu0->cpu0_L2C AVERAGE MISS LATENCY: 71.98 cycles
cpu0->cpu0_L1I TOTAL        ACCESS:    1106825 HIT:    1106825 MISS:          0 MSHR_MERGE:          0
cpu0->cpu0_L1I LOAD         ACCESS:    1106825 HIT:    1106825 MISS:          0 MSHR_MERGE:          0
cpu0->cpu0_L1I RFO          ACCESS:          0 HIT:          0 MISS:          0 MSHR_MERGE:          0
cpu0->cpu0_L1I PREFETCH     ACCESS:          0 HIT:          0 MISS:          0 MSHR_MERGE:          0
cpu0->cpu0_L1I WRITE        ACCESS:          0 HIT:          0 MISS:          0 MSHR_MERGE:          0
cpu0->cpu0_L1I TRANSLATION  ACCESS:          0 HIT:          0 MISS:          0 MSHR_MERGE:          0
cpu0->cpu0_L1I PREFETCH REQUESTED:          0 ISSUED:          0 USEFUL:          0 USELESS:          0
cpu0->cpu0_L1I AVERAGE MISS LATENCY: - cycles
cpu0->cpu0_L1D TOTAL        ACCESS:   39911155 HIT:   34627154 MISS:    5284001 MSHR_MERGE:    1505369
cpu0->cpu0_L1D LOAD         ACCESS:   28255443 HIT:   24074576 MISS:    4180867 MSHR_MERGE:     819749
cpu0->cpu0_L1D RFO          ACCESS:          0 HIT:          0 MISS:          0 MSHR_MERGE:          0
cpu0->cpu0_L1D PREFETCH     ACCESS:          0 HIT:          0 MISS:          0 MSHR_MERGE:          0
cpu0->cpu0_L1D WRITE        ACCESS:   11605184 HIT:   10539512 MISS:    1065672 MSHR_MERGE:     685602
cpu0->cpu0_L1D TRANSLATION  ACCESS:      50528 HIT:      13066 MISS:      37462 MSHR_MERGE:         18
cpu0->cpu0_L1D PREFETCH REQUESTED:          0 ISSUED:          0 USEFUL:          0 USELESS:          0
cpu0->cpu0_L1D AVERAGE MISS LATENCY: 60.5 cycles
cpu0->cpu0_ITLB TOTAL        ACCESS:     918316 HIT:     918316 MISS:          0 MSHR_MERGE:          0
cpu0->cpu0_ITLB LOAD         ACCESS:     918316 HIT:     918316 MISS:          0 MSHR_MERGE:          0
cpu0->cpu0_ITLB RFO          ACCESS:          0 HIT:          0 MISS:          0 MSHR_MERGE:          0
cpu0->cpu0_ITLB PREFETCH     ACCESS:          0 HIT:          0 MISS:          0 MSHR_MERGE:          0
cpu0->cpu0_ITLB WRITE        ACCESS:          0 HIT:          0 MISS:          0 MSHR_MERGE:          0
cpu0->cpu0_ITLB TRANSLATION  ACCESS:          0 HIT:          0 MISS:          0 MSHR_MERGE:          0
cpu0->cpu0_ITLB PREFETCH REQUESTED:          0 ISSUED:          0 USEFUL:          0 USELESS:          0
cpu0->cpu0_ITLB AVERAGE MISS LATENCY: - cycles
cpu0->cpu0_DTLB TOTAL        ACCESS:   38194256 HIT:   35945188 MISS:    2249068 MSHR_MERGE:     571165
cpu0->cpu0_DTLB LOAD         ACCESS:   38194256 HIT:   35945188 MISS:    2249068 MSHR_MERGE:     571165
cpu0->cpu0_DTLB RFO          ACCESS:          0 HIT:          0 MISS:          0 MSHR_MERGE:          0
cpu0->cpu0_DTLB PREFETCH     ACCESS:          0 HIT:          0 MISS:          0 MSHR_MERGE:          0
cpu0->cpu0_DTLB WRITE        ACCESS:          0 HIT:          0 MISS:          0 MSHR_MERGE:          0
cpu0->cpu0_DTLB TRANSLATION  ACCESS:          0 HIT:          0 MISS:          0 MSHR_MERGE:          0
cpu0->cpu0_DTLB PREFETCH REQUESTED:          0 ISSUED:          0 USEFUL:          0 USELESS:          0
cpu0->cpu0_DTLB AVERAGE MISS LATENCY: 10.65 cycles
cpu0->LLC TOTAL        ACCESS:    2782156 HIT:    1576289 MISS:    1205867 MSHR_MERGE:          0
cpu0->LLC LOAD         ACCESS:    2302186 HIT:    1127830 MISS:    1174356 MSHR_MERGE:          0
cpu0->LLC RFO          ACCESS:     173971 HIT:     171749 MISS:       2222 MSHR_MERGE:          0
cpu0->LLC PREFETCH     ACCESS:          0 HIT:          0 MISS:          0 MSHR_MERGE:          0
cpu0->LLC WRITE        ACCESS:     269122 HIT:     264516 MISS:       4606 MSHR_MERGE:          0
cpu0->LLC TRANSLATION  ACCESS:      36877 HIT:      12194 MISS:      24683 MSHR_MERGE:          0
cpu0->LLC PREFETCH REQUESTED:          0 ISSUED:          0 USEFUL:          0 USELESS:          0
cpu0->LLC AVERAGE MISS LATENCY: 86.9 cycles

DRAM Statistics

Channel 0 RQ ROW_BUFFER_HIT:     113201
  ROW_BUFFER_MISS:    1088058
  AVG DBUS CONGESTED CYCLE: 4.241
Channel 0 WQ ROW_BUFFER_HIT:       3949
  ROW_BUFFER_MISS:      14687
  FULL:          0
Channel 0 REFRESHES ISSUED:      23631
[2025-09-15 16:12:46] END   suite=spec trace=605.mcf_s-665B (rc=0)
