[2025-09-15 17:22:57] START suite=spec trace=605.mcf_s-782B
CMD: ./bin/champsim -w 20000000 -i 100000000 /home/ho/prefetch_aware_insertion_ptr/traces/spec2k17/605.mcf_s-782B.champsimtrace.xz
[VMEM] WARNING: physical memory size is smaller than virtual memory size.

*** ChampSim Multicore Out-of-Order Simulator ***
Warmup Instructions: 20000000
Simulation Instructions: 100000000
Number of CPUs: 1
Page size: 4096

Off-chip DRAM Size: 16 GiB Channels: 1 Width: 64-bit Data Rate: 3205 MT/s
Heartbeat CPU 0 instructions: 10000002 cycles: 5304147 heartbeat IPC: 1.885 cumulative IPC: 1.885 (Simulation time: 00 hr 01 min 04 sec)
Heartbeat CPU 0 instructions: 20000004 cycles: 10632226 heartbeat IPC: 1.877 cumulative IPC: 1.881 (Simulation time: 00 hr 02 min 09 sec)
Warmup finished CPU 0 instructions: 20000004 cycles: 10632226 cumulative IPC: 1.881 (Simulation time: 00 hr 02 min 09 sec)
Warmup complete CPU 0 instructions: 20000004 cycles: 10632226 cumulative IPC: 1.881 (Simulation time: 00 hr 02 min 09 sec)
Heartbeat CPU 0 instructions: 30000006 cycles: 130466961 heartbeat IPC: 0.08345 cumulative IPC: 0.08345 (Simulation time: 00 hr 11 min 53 sec)
Heartbeat CPU 0 instructions: 40000006 cycles: 248008860 heartbeat IPC: 0.08508 cumulative IPC: 0.08425 (Simulation time: 00 hr 20 min 32 sec)
Heartbeat CPU 0 instructions: 50000007 cycles: 369156741 heartbeat IPC: 0.08254 cumulative IPC: 0.08368 (Simulation time: 00 hr 30 min 03 sec)
Heartbeat CPU 0 instructions: 60000007 cycles: 484000812 heartbeat IPC: 0.08707 cumulative IPC: 0.0845 (Simulation time: 00 hr 38 min 35 sec)
Heartbeat CPU 0 instructions: 70000008 cycles: 598535606 heartbeat IPC: 0.08731 cumulative IPC: 0.08505 (Simulation time: 00 hr 47 min 28 sec)
Heartbeat CPU 0 instructions: 80000009 cycles: 713619040 heartbeat IPC: 0.08689 cumulative IPC: 0.08535 (Simulation time: 00 hr 56 min 24 sec)
Heartbeat CPU 0 instructions: 90000010 cycles: 834966772 heartbeat IPC: 0.08241 cumulative IPC: 0.08492 (Simulation time: 01 hr 05 min 23 sec)
Heartbeat CPU 0 instructions: 100000010 cycles: 953812467 heartbeat IPC: 0.08414 cumulative IPC: 0.08482 (Simulation time: 01 hr 14 min 19 sec)
Heartbeat CPU 0 instructions: 110000012 cycles: 1075269797 heartbeat IPC: 0.08233 cumulative IPC: 0.08454 (Simulation time: 01 hr 23 min 10 sec)
Simulation finished CPU 0 instructions: 100000000 cycles: 1181201470 cumulative IPC: 0.08466 (Simulation time: 01 hr 32 min 28 sec)
Simulation complete CPU 0 instructions: 100000000 cycles: 1181201470 cumulative IPC: 0.08466 (Simulation time: 01 hr 32 min 28 sec)

ChampSim completed all CPUs

=== Simulation ===
CPU 0 runs /home/ho/prefetch_aware_insertion_ptr/traces/spec2k17/605.mcf_s-782B.champsimtrace.xz

Region of Interest Statistics

CPU 0 cumulative IPC: 0.08466 instructions: 100000000 cycles: 1181201470
CPU 0 Branch Prediction Accuracy: 84.35% MPKI: 47.39 Average ROB Occupancy at Mispredict: 3.199
Branch type MPKI
BRANCH_DIRECT_JUMP: 0.9469
BRANCH_INDIRECT: 0
BRANCH_CONDITIONAL: 46.44
BRANCH_DIRECT_CALL: 1e-05
BRANCH_INDIRECT_CALL: 0.00089
BRANCH_RETURN: 0


====Backend Stall Breakdown====
ROB_STALL: 2338968
LQ_STALL: 965992
SQ_STALL: 389017


====ROB Stall Breakdown====

== Average ==
ADDR_TRANS: 120.29967
REPLAY_LOAD: 41.881702
NON_REPLAY_LOAD: 20.793482

== Total ==
ADDR_TRANS: 254915
REPLAY_LOAD: 110107
NON_REPLAY_LOAD: 1973946

== Counts ==
ADDR_TRANS: 2119
REPLAY_LOAD: 2629
NON_REPLAY_LOAD: 94931

cpu0->cpu0_STLB TOTAL        ACCESS:    8563195 HIT:    8449311 MISS:     113884 MSHR_MERGE:          0
cpu0->cpu0_STLB LOAD         ACCESS:    8563195 HIT:    8449311 MISS:     113884 MSHR_MERGE:          0
cpu0->cpu0_STLB RFO          ACCESS:          0 HIT:          0 MISS:          0 MSHR_MERGE:          0
cpu0->cpu0_STLB PREFETCH     ACCESS:          0 HIT:          0 MISS:          0 MSHR_MERGE:          0
cpu0->cpu0_STLB WRITE        ACCESS:          0 HIT:          0 MISS:          0 MSHR_MERGE:          0
cpu0->cpu0_STLB TRANSLATION  ACCESS:          0 HIT:          0 MISS:          0 MSHR_MERGE:          0
cpu0->cpu0_STLB PREFETCH REQUESTED:          0 ISSUED:          0 USEFUL:          0 USELESS:          0
cpu0->cpu0_STLB AVERAGE MISS LATENCY: 478.2 cycles
cpu0->cpu0_L2C TOTAL        ACCESS:   15528527 HIT:    2142124 MISS:   13386403 MSHR_MERGE:          0
cpu0->cpu0_L2C LOAD         ACCESS:   15001590 HIT:    1797563 MISS:   13204027 MSHR_MERGE:          0
cpu0->cpu0_L2C RFO          ACCESS:      39321 HIT:       7076 MISS:      32245 MSHR_MERGE:          0
cpu0->cpu0_L2C PREFETCH     ACCESS:          0 HIT:          0 MISS:          0 MSHR_MERGE:          0
cpu0->cpu0_L2C WRITE        ACCESS:     336091 HIT:     336058 MISS:         33 MSHR_MERGE:          0
cpu0->cpu0_L2C TRANSLATION  ACCESS:     151525 HIT:       1427 MISS:     150098 MSHR_MERGE:          0
cpu0->cpu0_L2C PREFETCH REQUESTED:          0 ISSUED:          0 USEFUL:          0 USELESS:          0
cpu0->cpu0_L2C AVERAGE MISS LATENCY: 83.15 cycles
cpu0->cpu0_L1I TOTAL        ACCESS:    1728646 HIT:    1728646 MISS:          0 MSHR_MERGE:          0
cpu0->cpu0_L1I LOAD         ACCESS:    1728646 HIT:    1728646 MISS:          0 MSHR_MERGE:          0
cpu0->cpu0_L1I RFO          ACCESS:          0 HIT:          0 MISS:          0 MSHR_MERGE:          0
cpu0->cpu0_L1I PREFETCH     ACCESS:          0 HIT:          0 MISS:          0 MSHR_MERGE:          0
cpu0->cpu0_L1I WRITE        ACCESS:          0 HIT:          0 MISS:          0 MSHR_MERGE:          0
cpu0->cpu0_L1I TRANSLATION  ACCESS:          0 HIT:          0 MISS:          0 MSHR_MERGE:          0
cpu0->cpu0_L1I PREFETCH REQUESTED:          0 ISSUED:          0 USEFUL:          0 USELESS:          0
cpu0->cpu0_L1I AVERAGE MISS LATENCY: - cycles
cpu0->cpu0_L1D TOTAL        ACCESS:   28174214 HIT:    8087927 MISS:   20086287 MSHR_MERGE:    4893851
cpu0->cpu0_L1D LOAD         ACCESS:   25817357 HIT:    6037248 MISS:   19780109 MSHR_MERGE:    4778519
cpu0->cpu0_L1D RFO          ACCESS:          0 HIT:          0 MISS:          0 MSHR_MERGE:          0
cpu0->cpu0_L1D PREFETCH     ACCESS:          0 HIT:          0 MISS:          0 MSHR_MERGE:          0
cpu0->cpu0_L1D WRITE        ACCESS:    2128189 HIT:    1973725 MISS:     154464 MSHR_MERGE:     115143
cpu0->cpu0_L1D TRANSLATION  ACCESS:     228668 HIT:      76954 MISS:     151714 MSHR_MERGE:        189
cpu0->cpu0_L1D PREFETCH REQUESTED:          0 ISSUED:          0 USEFUL:          0 USELESS:          0
cpu0->cpu0_L1D AVERAGE MISS LATENCY: 86.09 cycles
cpu0->cpu0_ITLB TOTAL        ACCESS:    1581155 HIT:    1581155 MISS:          0 MSHR_MERGE:          0
cpu0->cpu0_ITLB LOAD         ACCESS:    1581155 HIT:    1581155 MISS:          0 MSHR_MERGE:          0
cpu0->cpu0_ITLB RFO          ACCESS:          0 HIT:          0 MISS:          0 MSHR_MERGE:          0
cpu0->cpu0_ITLB PREFETCH     ACCESS:          0 HIT:          0 MISS:          0 MSHR_MERGE:          0
cpu0->cpu0_ITLB WRITE        ACCESS:          0 HIT:          0 MISS:          0 MSHR_MERGE:          0
cpu0->cpu0_ITLB TRANSLATION  ACCESS:          0 HIT:          0 MISS:          0 MSHR_MERGE:          0
cpu0->cpu0_ITLB PREFETCH REQUESTED:          0 ISSUED:          0 USEFUL:          0 USELESS:          0
cpu0->cpu0_ITLB AVERAGE MISS LATENCY: - cycles
cpu0->cpu0_DTLB TOTAL        ACCESS:   27618919 HIT:   18565958 MISS:    9052961 MSHR_MERGE:     489766
cpu0->cpu0_DTLB LOAD         ACCESS:   27618919 HIT:   18565958 MISS:    9052961 MSHR_MERGE:     489766
cpu0->cpu0_DTLB RFO          ACCESS:          0 HIT:          0 MISS:          0 MSHR_MERGE:          0
cpu0->cpu0_DTLB PREFETCH     ACCESS:          0 HIT:          0 MISS:          0 MSHR_MERGE:          0
cpu0->cpu0_DTLB WRITE        ACCESS:          0 HIT:          0 MISS:          0 MSHR_MERGE:          0
cpu0->cpu0_DTLB TRANSLATION  ACCESS:          0 HIT:          0 MISS:          0 MSHR_MERGE:          0
cpu0->cpu0_DTLB PREFETCH REQUESTED:          0 ISSUED:          0 USEFUL:          0 USELESS:          0
cpu0->cpu0_DTLB AVERAGE MISS LATENCY: 11.37 cycles
cpu0->LLC TOTAL        ACCESS:   13695199 HIT:    5863348 MISS:    7831851 MSHR_MERGE:          0
cpu0->LLC LOAD         ACCESS:   13204027 HIT:    5507437 MISS:    7696590 MSHR_MERGE:          0
cpu0->LLC RFO          ACCESS:      32245 HIT:      27239 MISS:       5006 MSHR_MERGE:          0
cpu0->LLC PREFETCH     ACCESS:          0 HIT:          0 MISS:          0 MSHR_MERGE:          0
cpu0->LLC WRITE        ACCESS:     308829 HIT:     308114 MISS:        715 MSHR_MERGE:          0
cpu0->LLC TRANSLATION  ACCESS:     150098 HIT:      20558 MISS:     129540 MSHR_MERGE:          0
cpu0->LLC PREFETCH REQUESTED:          0 ISSUED:          0 USEFUL:          0 USELESS:          0
cpu0->LLC AVERAGE MISS LATENCY: 90.18 cycles

DRAM Statistics

Channel 0 RQ ROW_BUFFER_HIT:     842489
  ROW_BUFFER_MISS:    6988643
  AVG DBUS CONGESTED CYCLE: 3.972
Channel 0 WQ ROW_BUFFER_HIT:      27087
  ROW_BUFFER_MISS:     124086
  FULL:          0
Channel 0 REFRESHES ISSUED:      98433
[2025-09-15 18:55:25] END   suite=spec trace=605.mcf_s-782B (rc=0)
