[2025-09-15 16:02:15] START suite=spec trace=605.mcf_s-1554B
CMD: ./bin/champsim -w 20000000 -i 100000000 /home/ho/prefetch_aware_insertion_ptr/traces/spec2k17/605.mcf_s-1554B.champsimtrace.xz
[VMEM] WARNING: physical memory size is smaller than virtual memory size.

*** ChampSim Multicore Out-of-Order Simulator ***
Warmup Instructions: 20000000
Simulation Instructions: 100000000
Number of CPUs: 1
Page size: 4096

Off-chip DRAM Size: 16 GiB Channels: 1 Width: 64-bit Data Rate: 3205 MT/s
Heartbeat CPU 0 instructions: 10000004 cycles: 3001360 heartbeat IPC: 3.332 cumulative IPC: 3.332 (Simulation time: 00 hr 00 min 47 sec)
Heartbeat CPU 0 instructions: 20000004 cycles: 5753800 heartbeat IPC: 3.633 cumulative IPC: 3.476 (Simulation time: 00 hr 01 min 32 sec)
Warmup finished CPU 0 instructions: 20000004 cycles: 5753800 cumulative IPC: 3.476 (Simulation time: 00 hr 01 min 32 sec)
Warmup complete CPU 0 instructions: 20000004 cycles: 5753800 cumulative IPC: 3.476 (Simulation time: 00 hr 01 min 32 sec)
Heartbeat CPU 0 instructions: 30000007 cycles: 51456792 heartbeat IPC: 0.2188 cumulative IPC: 0.2188 (Simulation time: 00 hr 06 min 49 sec)
Heartbeat CPU 0 instructions: 40000007 cycles: 97848033 heartbeat IPC: 0.2156 cumulative IPC: 0.2172 (Simulation time: 00 hr 12 min 23 sec)
Heartbeat CPU 0 instructions: 50000007 cycles: 144770351 heartbeat IPC: 0.2131 cumulative IPC: 0.2158 (Simulation time: 00 hr 17 min 51 sec)
Heartbeat CPU 0 instructions: 60000010 cycles: 191225478 heartbeat IPC: 0.2153 cumulative IPC: 0.2157 (Simulation time: 00 hr 23 min 13 sec)
Heartbeat CPU 0 instructions: 70000010 cycles: 238241087 heartbeat IPC: 0.2127 cumulative IPC: 0.2151 (Simulation time: 00 hr 28 min 44 sec)
Heartbeat CPU 0 instructions: 80000010 cycles: 286236549 heartbeat IPC: 0.2084 cumulative IPC: 0.2139 (Simulation time: 00 hr 34 min 14 sec)
Heartbeat CPU 0 instructions: 90000010 cycles: 332772458 heartbeat IPC: 0.2149 cumulative IPC: 0.2141 (Simulation time: 00 hr 39 min 43 sec)
Heartbeat CPU 0 instructions: 100000010 cycles: 378915312 heartbeat IPC: 0.2167 cumulative IPC: 0.2144 (Simulation time: 00 hr 44 min 59 sec)
Heartbeat CPU 0 instructions: 110000011 cycles: 425473001 heartbeat IPC: 0.2148 cumulative IPC: 0.2144 (Simulation time: 00 hr 50 min 22 sec)
Simulation finished CPU 0 instructions: 100000002 cycles: 464127509 cumulative IPC: 0.2155 (Simulation time: 00 hr 55 min 41 sec)
Simulation complete CPU 0 instructions: 100000002 cycles: 464127509 cumulative IPC: 0.2155 (Simulation time: 00 hr 55 min 41 sec)

ChampSim completed all CPUs

=== Simulation ===
CPU 0 runs /home/ho/prefetch_aware_insertion_ptr/traces/spec2k17/605.mcf_s-1554B.champsimtrace.xz

Region of Interest Statistics

CPU 0 cumulative IPC: 0.2155 instructions: 100000002 cycles: 464127509
CPU 0 Branch Prediction Accuracy: 97.78% MPKI: 4.031 Average ROB Occupancy at Mispredict: 46.78
Branch type MPKI
BRANCH_DIRECT_JUMP: 0
BRANCH_INDIRECT: 0
BRANCH_CONDITIONAL: 4.031
BRANCH_DIRECT_CALL: 0
BRANCH_INDIRECT_CALL: 0
BRANCH_RETURN: 0


====Backend Stall Breakdown====
ROB_STALL: 196842469
LQ_STALL: 30873755
SQ_STALL: 107931


====ROB Stall Breakdown====

== Average ==
ADDR_TRANS: 420.3646
REPLAY_LOAD: 120.9127
NON_REPLAY_LOAD: 63.452415

== Total ==
ADDR_TRANS: 40355
REPLAY_LOAD: 15235
NON_REPLAY_LOAD: 196786879

== Counts ==
ADDR_TRANS: 96
REPLAY_LOAD: 126
NON_REPLAY_LOAD: 3101330

cpu0->cpu0_STLB TOTAL        ACCESS:     394022 HIT:     385566 MISS:       8456 MSHR_MERGE:          0
cpu0->cpu0_STLB LOAD         ACCESS:     394022 HIT:     385566 MISS:       8456 MSHR_MERGE:          0
cpu0->cpu0_STLB RFO          ACCESS:          0 HIT:          0 MISS:          0 MSHR_MERGE:          0
cpu0->cpu0_STLB PREFETCH     ACCESS:          0 HIT:          0 MISS:          0 MSHR_MERGE:          0
cpu0->cpu0_STLB WRITE        ACCESS:          0 HIT:          0 MISS:          0 MSHR_MERGE:          0
cpu0->cpu0_STLB TRANSLATION  ACCESS:          0 HIT:          0 MISS:          0 MSHR_MERGE:          0
cpu0->cpu0_STLB PREFETCH REQUESTED:          0 ISSUED:          0 USEFUL:          0 USELESS:          0
cpu0->cpu0_STLB AVERAGE MISS LATENCY: 591.1 cycles
cpu0->cpu0_L2C TOTAL        ACCESS:   15743681 HIT:     373008 MISS:   15370673 MSHR_MERGE:          0
cpu0->cpu0_L2C LOAD         ACCESS:   15070871 HIT:       1187 MISS:   15069684 MSHR_MERGE:          0
cpu0->cpu0_L2C RFO          ACCESS:     294824 HIT:       4877 MISS:     289947 MSHR_MERGE:          0
cpu0->cpu0_L2C PREFETCH     ACCESS:          0 HIT:          0 MISS:          0 MSHR_MERGE:          0
cpu0->cpu0_L2C WRITE        ACCESS:     363784 HIT:     363295 MISS:        489 MSHR_MERGE:          0
cpu0->cpu0_L2C TRANSLATION  ACCESS:      14202 HIT:       3649 MISS:      10553 MSHR_MERGE:          0
cpu0->cpu0_L2C PREFETCH REQUESTED:          0 ISSUED:          0 USEFUL:          0 USELESS:          0
cpu0->cpu0_L2C AVERAGE MISS LATENCY: 116 cycles
cpu0->cpu0_L1I TOTAL        ACCESS:   18767759 HIT:   18767759 MISS:          0 MSHR_MERGE:          0
cpu0->cpu0_L1I LOAD         ACCESS:   18767759 HIT:   18767759 MISS:          0 MSHR_MERGE:          0
cpu0->cpu0_L1I RFO          ACCESS:          0 HIT:          0 MISS:          0 MSHR_MERGE:          0
cpu0->cpu0_L1I PREFETCH     ACCESS:          0 HIT:          0 MISS:          0 MSHR_MERGE:          0
cpu0->cpu0_L1I WRITE        ACCESS:          0 HIT:          0 MISS:          0 MSHR_MERGE:          0
cpu0->cpu0_L1I TRANSLATION  ACCESS:          0 HIT:          0 MISS:          0 MSHR_MERGE:          0
cpu0->cpu0_L1I PREFETCH REQUESTED:          0 ISSUED:          0 USEFUL:          0 USELESS:          0
cpu0->cpu0_L1I AVERAGE MISS LATENCY: - cycles
cpu0->cpu0_L1D TOTAL        ACCESS:   45009098 HIT:   25818591 MISS:   19190507 MSHR_MERGE:    3810611
cpu0->cpu0_L1D LOAD         ACCESS:   37820015 HIT:   19604308 MISS:   18215707 MSHR_MERGE:    3144837
cpu0->cpu0_L1D RFO          ACCESS:          0 HIT:          0 MISS:          0 MSHR_MERGE:          0
cpu0->cpu0_L1D PREFETCH     ACCESS:          0 HIT:          0 MISS:          0 MSHR_MERGE:          0
cpu0->cpu0_L1D WRITE        ACCESS:    7172155 HIT:    6211567 MISS:     960588 MSHR_MERGE:     665764
cpu0->cpu0_L1D TRANSLATION  ACCESS:      16928 HIT:       2716 MISS:      14212 MSHR_MERGE:         10
cpu0->cpu0_L1D PREFETCH REQUESTED:          0 ISSUED:          0 USEFUL:          0 USELESS:          0
cpu0->cpu0_L1D AVERAGE MISS LATENCY: 129 cycles
cpu0->cpu0_ITLB TOTAL        ACCESS:   16751849 HIT:   16751849 MISS:          0 MSHR_MERGE:          0
cpu0->cpu0_ITLB LOAD         ACCESS:   16751849 HIT:   16751849 MISS:          0 MSHR_MERGE:          0
cpu0->cpu0_ITLB RFO          ACCESS:          0 HIT:          0 MISS:          0 MSHR_MERGE:          0
cpu0->cpu0_ITLB PREFETCH     ACCESS:          0 HIT:          0 MISS:          0 MSHR_MERGE:          0
cpu0->cpu0_ITLB WRITE        ACCESS:          0 HIT:          0 MISS:          0 MSHR_MERGE:          0
cpu0->cpu0_ITLB TRANSLATION  ACCESS:          0 HIT:          0 MISS:          0 MSHR_MERGE:          0
cpu0->cpu0_ITLB PREFETCH REQUESTED:          0 ISSUED:          0 USEFUL:          0 USELESS:          0
cpu0->cpu0_ITLB AVERAGE MISS LATENCY: - cycles
cpu0->cpu0_DTLB TOTAL        ACCESS:   43233026 HIT:   42725932 MISS:     507094 MSHR_MERGE:     113072
cpu0->cpu0_DTLB LOAD         ACCESS:   43233026 HIT:   42725932 MISS:     507094 MSHR_MERGE:     113072
cpu0->cpu0_DTLB RFO          ACCESS:          0 HIT:          0 MISS:          0 MSHR_MERGE:          0
cpu0->cpu0_DTLB PREFETCH     ACCESS:          0 HIT:          0 MISS:          0 MSHR_MERGE:          0
cpu0->cpu0_DTLB WRITE        ACCESS:          0 HIT:          0 MISS:          0 MSHR_MERGE:          0
cpu0->cpu0_DTLB TRANSLATION  ACCESS:          0 HIT:          0 MISS:          0 MSHR_MERGE:          0
cpu0->cpu0_DTLB PREFETCH REQUESTED:          0 ISSUED:          0 USEFUL:          0 USELESS:          0
cpu0->cpu0_DTLB AVERAGE MISS LATENCY: 17.71 cycles
cpu0->LLC TOTAL        ACCESS:   15728627 HIT:    3733875 MISS:   11994752 MSHR_MERGE:          0
cpu0->LLC LOAD         ACCESS:   15069684 HIT:    3373971 MISS:   11695713 MSHR_MERGE:          0
cpu0->LLC RFO          ACCESS:     289947 HIT:       1238 MISS:     288709 MSHR_MERGE:          0
cpu0->LLC PREFETCH     ACCESS:          0 HIT:          0 MISS:          0 MSHR_MERGE:          0
cpu0->LLC WRITE        ACCESS:     358443 HIT:     358331 MISS:        112 MSHR_MERGE:          0
cpu0->LLC TRANSLATION  ACCESS:      10553 HIT:        335 MISS:      10218 MSHR_MERGE:          0
cpu0->LLC PREFETCH REQUESTED:          0 ISSUED:          0 USEFUL:          0 USELESS:          0
cpu0->LLC AVERAGE MISS LATENCY: 109.2 cycles

DRAM Statistics

Channel 0 RQ ROW_BUFFER_HIT:     240563
  ROW_BUFFER_MISS:   11754021
  AVG DBUS CONGESTED CYCLE: 3.624
Channel 0 WQ ROW_BUFFER_HIT:      87509
  ROW_BUFFER_MISS:     268759
  FULL:          0
Channel 0 REFRESHES ISSUED:      38677
[2025-09-15 16:57:56] END   suite=spec trace=605.mcf_s-1554B (rc=0)
