[2025-09-15 16:01:30] START suite=spec trace=607.cactuBSSN_s-4004B
CMD: ./bin/champsim -w 20000000 -i 100000000 /home/ho/prefetch_aware_insertion_ptr/traces/spec2k17/607.cactuBSSN_s-4004B.champsimtrace.xz
[VMEM] WARNING: physical memory size is smaller than virtual memory size.

*** ChampSim Multicore Out-of-Order Simulator ***
Warmup Instructions: 20000000
Simulation Instructions: 100000000
Number of CPUs: 1
Page size: 4096

Off-chip DRAM Size: 16 GiB Channels: 1 Width: 64-bit Data Rate: 3205 MT/s
Heartbeat CPU 0 instructions: 10000001 cycles: 2965298 heartbeat IPC: 3.372 cumulative IPC: 3.372 (Simulation time: 00 hr 00 min 43 sec)
Heartbeat CPU 0 instructions: 20000004 cycles: 5916072 heartbeat IPC: 3.389 cumulative IPC: 3.381 (Simulation time: 00 hr 01 min 26 sec)
Warmup finished CPU 0 instructions: 20000004 cycles: 5916072 cumulative IPC: 3.381 (Simulation time: 00 hr 01 min 26 sec)
Warmup complete CPU 0 instructions: 20000004 cycles: 5916072 cumulative IPC: 3.381 (Simulation time: 00 hr 01 min 26 sec)
Heartbeat CPU 0 instructions: 30000006 cycles: 9975445 heartbeat IPC: 2.463 cumulative IPC: 2.463 (Simulation time: 00 hr 02 min 26 sec)
Heartbeat CPU 0 instructions: 40000010 cycles: 14033634 heartbeat IPC: 2.464 cumulative IPC: 2.464 (Simulation time: 00 hr 03 min 25 sec)
Heartbeat CPU 0 instructions: 50000013 cycles: 18103438 heartbeat IPC: 2.457 cumulative IPC: 2.462 (Simulation time: 00 hr 04 min 22 sec)
Heartbeat CPU 0 instructions: 60000015 cycles: 22176901 heartbeat IPC: 2.455 cumulative IPC: 2.46 (Simulation time: 00 hr 05 min 23 sec)
Heartbeat CPU 0 instructions: 70000018 cycles: 26244998 heartbeat IPC: 2.458 cumulative IPC: 2.46 (Simulation time: 00 hr 06 min 24 sec)
Heartbeat CPU 0 instructions: 80000020 cycles: 30388078 heartbeat IPC: 2.414 cumulative IPC: 2.452 (Simulation time: 00 hr 07 min 25 sec)
Heartbeat CPU 0 instructions: 90000021 cycles: 34468653 heartbeat IPC: 2.451 cumulative IPC: 2.452 (Simulation time: 00 hr 08 min 27 sec)
Heartbeat CPU 0 instructions: 100000024 cycles: 38534857 heartbeat IPC: 2.459 cumulative IPC: 2.453 (Simulation time: 00 hr 09 min 30 sec)
Heartbeat CPU 0 instructions: 110000025 cycles: 42598193 heartbeat IPC: 2.461 cumulative IPC: 2.454 (Simulation time: 00 hr 10 min 29 sec)
Simulation finished CPU 0 instructions: 100000002 cycles: 40750936 cumulative IPC: 2.454 (Simulation time: 00 hr 11 min 26 sec)
Simulation complete CPU 0 instructions: 100000002 cycles: 40750936 cumulative IPC: 2.454 (Simulation time: 00 hr 11 min 26 sec)

ChampSim completed all CPUs

=== Simulation ===
CPU 0 runs /home/ho/prefetch_aware_insertion_ptr/traces/spec2k17/607.cactuBSSN_s-4004B.champsimtrace.xz

Region of Interest Statistics

CPU 0 cumulative IPC: 2.454 instructions: 100000002 cycles: 40750936
CPU 0 Branch Prediction Accuracy: 91.83% MPKI: 0.7281 Average ROB Occupancy at Mispredict: 237.6
Branch type MPKI
BRANCH_DIRECT_JUMP: 0
BRANCH_INDIRECT: 1e-05
BRANCH_CONDITIONAL: 0.3646
BRANCH_DIRECT_CALL: 0
BRANCH_INDIRECT_CALL: 0
BRANCH_RETURN: 0.3635


====Backend Stall Breakdown====
ROB_STALL: 11428774
LQ_STALL: 2449430
SQ_STALL: 1019231


====ROB Stall Breakdown====

== Average ==
ADDR_TRANS: 322.17813
REPLAY_LOAD: 111.55405
NON_REPLAY_LOAD: 14.877042

== Total ==
ADDR_TRANS: 642101
REPLAY_LOAD: 246646
NON_REPLAY_LOAD: 10540027

== Counts ==
ADDR_TRANS: 1993
REPLAY_LOAD: 2211
NON_REPLAY_LOAD: 708476

cpu0->cpu0_STLB TOTAL        ACCESS:    3870798 HIT:    3866536 MISS:       4262 MSHR_MERGE:          0
cpu0->cpu0_STLB LOAD         ACCESS:    3870798 HIT:    3866536 MISS:       4262 MSHR_MERGE:          0
cpu0->cpu0_STLB RFO          ACCESS:          0 HIT:          0 MISS:          0 MSHR_MERGE:          0
cpu0->cpu0_STLB PREFETCH     ACCESS:          0 HIT:          0 MISS:          0 MSHR_MERGE:          0
cpu0->cpu0_STLB WRITE        ACCESS:          0 HIT:          0 MISS:          0 MSHR_MERGE:          0
cpu0->cpu0_STLB TRANSLATION  ACCESS:          0 HIT:          0 MISS:          0 MSHR_MERGE:          0
cpu0->cpu0_STLB PREFETCH REQUESTED:          0 ISSUED:          0 USEFUL:          0 USELESS:          0
cpu0->cpu0_STLB AVERAGE MISS LATENCY: 716.2 cycles
cpu0->cpu0_L2C TOTAL        ACCESS:   10566786 HIT:   10006674 MISS:     560112 MSHR_MERGE:          0
cpu0->cpu0_L2C LOAD         ACCESS:    9258264 HIT:    8771100 MISS:     487164 MSHR_MERGE:          0
cpu0->cpu0_L2C RFO          ACCESS:     619472 HIT:     556945 MISS:      62527 MSHR_MERGE:          0
cpu0->cpu0_L2C PREFETCH     ACCESS:          0 HIT:          0 MISS:          0 MSHR_MERGE:          0
cpu0->cpu0_L2C WRITE        ACCESS:     678416 HIT:     678327 MISS:         89 MSHR_MERGE:          0
cpu0->cpu0_L2C TRANSLATION  ACCESS:      10634 HIT:        302 MISS:      10332 MSHR_MERGE:          0
cpu0->cpu0_L2C PREFETCH REQUESTED:          0 ISSUED:          0 USEFUL:          0 USELESS:          0
cpu0->cpu0_L2C AVERAGE MISS LATENCY: 88.81 cycles
cpu0->cpu0_L1I TOTAL        ACCESS:   17677324 HIT:   13247055 MISS:    4430269 MSHR_MERGE:    1830259
cpu0->cpu0_L1I LOAD         ACCESS:   17677324 HIT:   13247055 MISS:    4430269 MSHR_MERGE:    1830259
cpu0->cpu0_L1I RFO          ACCESS:          0 HIT:          0 MISS:          0 MSHR_MERGE:          0
cpu0->cpu0_L1I PREFETCH     ACCESS:          0 HIT:          0 MISS:          0 MSHR_MERGE:          0
cpu0->cpu0_L1I WRITE        ACCESS:          0 HIT:          0 MISS:          0 MSHR_MERGE:          0
cpu0->cpu0_L1I TRANSLATION  ACCESS:          0 HIT:          0 MISS:          0 MSHR_MERGE:          0
cpu0->cpu0_L1I PREFETCH REQUESTED:          0 ISSUED:          0 USEFUL:          0 USELESS:          0
cpu0->cpu0_L1I AVERAGE MISS LATENCY: 11.11 cycles
cpu0->cpu0_L1D TOTAL        ACCESS:   34278981 HIT:   26572435 MISS:    7706546 MSHR_MERGE:     417766
cpu0->cpu0_L1D LOAD         ACCESS:   26393609 HIT:   19381885 MISS:    7011724 MSHR_MERGE:     353163
cpu0->cpu0_L1D RFO          ACCESS:          0 HIT:          0 MISS:          0 MSHR_MERGE:          0
cpu0->cpu0_L1D PREFETCH     ACCESS:          0 HIT:          0 MISS:          0 MSHR_MERGE:          0
cpu0->cpu0_L1D WRITE        ACCESS:    7874714 HIT:    7190530 MISS:     684184 MSHR_MERGE:      64599
cpu0->cpu0_L1D TRANSLATION  ACCESS:      10658 HIT:         20 MISS:      10638 MSHR_MERGE:          4
cpu0->cpu0_L1D PREFETCH REQUESTED:          0 ISSUED:          0 USEFUL:          0 USELESS:          0
cpu0->cpu0_L1D AVERAGE MISS LATENCY: 19.44 cycles
cpu0->cpu0_ITLB TOTAL        ACCESS:   14794354 HIT:   14794354 MISS:          0 MSHR_MERGE:          0
cpu0->cpu0_ITLB LOAD         ACCESS:   14794354 HIT:   14794354 MISS:          0 MSHR_MERGE:          0
cpu0->cpu0_ITLB RFO          ACCESS:          0 HIT:          0 MISS:          0 MSHR_MERGE:          0
cpu0->cpu0_ITLB PREFETCH     ACCESS:          0 HIT:          0 MISS:          0 MSHR_MERGE:          0
cpu0->cpu0_ITLB WRITE        ACCESS:          0 HIT:          0 MISS:          0 MSHR_MERGE:          0
cpu0->cpu0_ITLB TRANSLATION  ACCESS:          0 HIT:          0 MISS:          0 MSHR_MERGE:          0
cpu0->cpu0_ITLB PREFETCH REQUESTED:          0 ISSUED:          0 USEFUL:          0 USELESS:          0
cpu0->cpu0_ITLB AVERAGE MISS LATENCY: - cycles
cpu0->cpu0_DTLB TOTAL        ACCESS:   32106419 HIT:   27691753 MISS:    4414666 MSHR_MERGE:     543868
cpu0->cpu0_DTLB LOAD         ACCESS:   32106419 HIT:   27691753 MISS:    4414666 MSHR_MERGE:     543868
cpu0->cpu0_DTLB RFO          ACCESS:          0 HIT:          0 MISS:          0 MSHR_MERGE:          0
cpu0->cpu0_DTLB PREFETCH     ACCESS:          0 HIT:          0 MISS:          0 MSHR_MERGE:          0
cpu0->cpu0_DTLB WRITE        ACCESS:          0 HIT:          0 MISS:          0 MSHR_MERGE:          0
cpu0->cpu0_DTLB TRANSLATION  ACCESS:          0 HIT:          0 MISS:          0 MSHR_MERGE:          0
cpu0->cpu0_DTLB PREFETCH REQUESTED:          0 ISSUED:          0 USEFUL:          0 USELESS:          0
cpu0->cpu0_DTLB AVERAGE MISS LATENCY: 5.838 cycles
cpu0->LLC TOTAL        ACCESS:     622715 HIT:     349179 MISS:     273536 MSHR_MERGE:          0
cpu0->LLC LOAD         ACCESS:     487164 HIT:     279192 MISS:     207972 MSHR_MERGE:          0
cpu0->LLC RFO          ACCESS:      62466 HIT:       3616 MISS:      58850 MSHR_MERGE:          0
cpu0->LLC PREFETCH     ACCESS:          0 HIT:          0 MISS:          0 MSHR_MERGE:          0
cpu0->LLC WRITE        ACCESS:      62753 HIT:      62683 MISS:         70 MSHR_MERGE:          0
cpu0->LLC TRANSLATION  ACCESS:      10332 HIT:       3688 MISS:       6644 MSHR_MERGE:          0
cpu0->LLC PREFETCH REQUESTED:          0 ISSUED:          0 USEFUL:          0 USELESS:          0
cpu0->LLC AVERAGE MISS LATENCY: 119.7 cycles

DRAM Statistics

Channel 0 RQ ROW_BUFFER_HIT:          3
  ROW_BUFFER_MISS:     273463
  AVG DBUS CONGESTED CYCLE: 3.748
Channel 0 WQ ROW_BUFFER_HIT:       5354
  ROW_BUFFER_MISS:      53417
  FULL:          0
Channel 0 REFRESHES ISSUED:       3395
[2025-09-15 16:12:57] END   suite=spec trace=607.cactuBSSN_s-4004B (rc=0)
