[2025-09-15 17:34:51] START suite=spec trace=619.lbm_s-3766B
CMD: ./bin/champsim -w 20000000 -i 100000000 /home/ho/prefetch_aware_insertion_ptr/traces/spec2k17/619.lbm_s-3766B.champsimtrace.xz
[VMEM] WARNING: physical memory size is smaller than virtual memory size.

*** ChampSim Multicore Out-of-Order Simulator ***
Warmup Instructions: 20000000
Simulation Instructions: 100000000
Number of CPUs: 1
Page size: 4096

Off-chip DRAM Size: 16 GiB Channels: 1 Width: 64-bit Data Rate: 3205 MT/s
Heartbeat CPU 0 instructions: 10000003 cycles: 2304701 heartbeat IPC: 4.339 cumulative IPC: 4.339 (Simulation time: 00 hr 00 min 34 sec)
Warmup finished CPU 0 instructions: 20000000 cycles: 4622182 cumulative IPC: 4.327 (Simulation time: 00 hr 01 min 11 sec)
Warmup complete CPU 0 instructions: 20000000 cycles: 4622182 cumulative IPC: 4.327 (Simulation time: 00 hr 01 min 11 sec)
Heartbeat CPU 0 instructions: 20000005 cycles: 4622183 heartbeat IPC: 4.315 cumulative IPC: 5 (Simulation time: 00 hr 01 min 11 sec)
Heartbeat CPU 0 instructions: 30000008 cycles: 11999809 heartbeat IPC: 1.355 cumulative IPC: 1.355 (Simulation time: 00 hr 02 min 47 sec)
Heartbeat CPU 0 instructions: 40000009 cycles: 19454430 heartbeat IPC: 1.341 cumulative IPC: 1.348 (Simulation time: 00 hr 04 min 26 sec)
Heartbeat CPU 0 instructions: 50000012 cycles: 26940657 heartbeat IPC: 1.336 cumulative IPC: 1.344 (Simulation time: 00 hr 06 min 04 sec)
Heartbeat CPU 0 instructions: 60000014 cycles: 34303712 heartbeat IPC: 1.358 cumulative IPC: 1.348 (Simulation time: 00 hr 07 min 40 sec)
Heartbeat CPU 0 instructions: 70000018 cycles: 41775216 heartbeat IPC: 1.338 cumulative IPC: 1.346 (Simulation time: 00 hr 09 min 20 sec)
Heartbeat CPU 0 instructions: 80000020 cycles: 49151667 heartbeat IPC: 1.356 cumulative IPC: 1.347 (Simulation time: 00 hr 10 min 54 sec)
Heartbeat CPU 0 instructions: 90000021 cycles: 56626810 heartbeat IPC: 1.338 cumulative IPC: 1.346 (Simulation time: 00 hr 12 min 32 sec)
Heartbeat CPU 0 instructions: 100000023 cycles: 63993467 heartbeat IPC: 1.357 cumulative IPC: 1.347 (Simulation time: 00 hr 14 min 11 sec)
Heartbeat CPU 0 instructions: 110000025 cycles: 71775430 heartbeat IPC: 1.285 cumulative IPC: 1.34 (Simulation time: 00 hr 15 min 56 sec)
Simulation finished CPU 0 instructions: 100000000 cycles: 75135933 cumulative IPC: 1.331 (Simulation time: 00 hr 17 min 38 sec)
Simulation complete CPU 0 instructions: 100000000 cycles: 75135933 cumulative IPC: 1.331 (Simulation time: 00 hr 17 min 38 sec)

ChampSim completed all CPUs

=== Simulation ===
CPU 0 runs /home/ho/prefetch_aware_insertion_ptr/traces/spec2k17/619.lbm_s-3766B.champsimtrace.xz

Region of Interest Statistics

CPU 0 cumulative IPC: 1.331 instructions: 100000000 cycles: 75135933
CPU 0 Branch Prediction Accuracy: 99.4% MPKI: 0.06526 Average ROB Occupancy at Mispredict: 260.6
Branch type MPKI
BRANCH_DIRECT_JUMP: 0
BRANCH_INDIRECT: 0
BRANCH_CONDITIONAL: 0.06526
BRANCH_DIRECT_CALL: 0
BRANCH_INDIRECT_CALL: 0
BRANCH_RETURN: 0


====Backend Stall Breakdown====
ROB_STALL: 51662817
LQ_STALL: 0
SQ_STALL: 1559266


====ROB Stall Breakdown====

== Average ==
ADDR_TRANS: 582.8786
REPLAY_LOAD: 104.566605
NON_REPLAY_LOAD: 59.21714

== Total ==
ADDR_TRANS: 4795342
REPLAY_LOAD: 860374
NON_REPLAY_LOAD: 46007101

== Counts ==
ADDR_TRANS: 8227
REPLAY_LOAD: 8228
NON_REPLAY_LOAD: 776922

cpu0->cpu0_STLB TOTAL        ACCESS:      63080 HIT:      28854 MISS:      34226 MSHR_MERGE:          0
cpu0->cpu0_STLB LOAD         ACCESS:      63080 HIT:      28854 MISS:      34226 MSHR_MERGE:          0
cpu0->cpu0_STLB RFO          ACCESS:          0 HIT:          0 MISS:          0 MSHR_MERGE:          0
cpu0->cpu0_STLB PREFETCH     ACCESS:          0 HIT:          0 MISS:          0 MSHR_MERGE:          0
cpu0->cpu0_STLB WRITE        ACCESS:          0 HIT:          0 MISS:          0 MSHR_MERGE:          0
cpu0->cpu0_STLB TRANSLATION  ACCESS:          0 HIT:          0 MISS:          0 MSHR_MERGE:          0
cpu0->cpu0_STLB PREFETCH REQUESTED:          0 ISSUED:          0 USEFUL:          0 USELESS:          0
cpu0->cpu0_STLB AVERAGE MISS LATENCY: 533.2 cycles
cpu0->cpu0_L2C TOTAL        ACCESS:    6773383 HIT:    4486517 MISS:    2286866 MSHR_MERGE:          0
cpu0->cpu0_L2C LOAD         ACCESS:     547470 HIT:          0 MISS:     547470 MSHR_MERGE:          0
cpu0->cpu0_L2C RFO          ACCESS:    3093438 HIT:    1392581 MISS:    1700857 MSHR_MERGE:          0
cpu0->cpu0_L2C PREFETCH     ACCESS:          0 HIT:          0 MISS:          0 MSHR_MERGE:          0
cpu0->cpu0_L2C WRITE        ACCESS:    3093937 HIT:    3093936 MISS:          1 MSHR_MERGE:          0
cpu0->cpu0_L2C TRANSLATION  ACCESS:      38538 HIT:          0 MISS:      38538 MSHR_MERGE:          0
cpu0->cpu0_L2C PREFETCH REQUESTED:          0 ISSUED:          0 USEFUL:          0 USELESS:          0
cpu0->cpu0_L2C AVERAGE MISS LATENCY: 238.3 cycles
cpu0->cpu0_L1I TOTAL        ACCESS:   17322683 HIT:   17322683 MISS:          0 MSHR_MERGE:          0
cpu0->cpu0_L1I LOAD         ACCESS:   17322683 HIT:   17322683 MISS:          0 MSHR_MERGE:          0
cpu0->cpu0_L1I RFO          ACCESS:          0 HIT:          0 MISS:          0 MSHR_MERGE:          0
cpu0->cpu0_L1I PREFETCH     ACCESS:          0 HIT:          0 MISS:          0 MSHR_MERGE:          0
cpu0->cpu0_L1I WRITE        ACCESS:          0 HIT:          0 MISS:          0 MSHR_MERGE:          0
cpu0->cpu0_L1I TRANSLATION  ACCESS:          0 HIT:          0 MISS:          0 MSHR_MERGE:          0
cpu0->cpu0_L1I PREFETCH REQUESTED:          0 ISSUED:          0 USEFUL:          0 USELESS:          0
cpu0->cpu0_L1I AVERAGE MISS LATENCY: - cycles
cpu0->cpu0_L1D TOTAL        ACCESS:   20167568 HIT:   15568934 MISS:    4598634 MSHR_MERGE:     918685
cpu0->cpu0_L1D LOAD         ACCESS:    5395209 HIT:    4002222 MISS:    1392987 MSHR_MERGE:     845517
cpu0->cpu0_L1D RFO          ACCESS:          0 HIT:          0 MISS:          0 MSHR_MERGE:          0
cpu0->cpu0_L1D PREFETCH     ACCESS:          0 HIT:          0 MISS:          0 MSHR_MERGE:          0
cpu0->cpu0_L1D WRITE        ACCESS:   14703873 HIT:   11536764 MISS:    3167109 MSHR_MERGE:      73168
cpu0->cpu0_L1D TRANSLATION  ACCESS:      68486 HIT:      29948 MISS:      38538 MSHR_MERGE:          0
cpu0->cpu0_L1D PREFETCH REQUESTED:          0 ISSUED:          0 USEFUL:          0 USELESS:          0
cpu0->cpu0_L1D AVERAGE MISS LATENCY: 161.1 cycles
cpu0->cpu0_ITLB TOTAL        ACCESS:   12916364 HIT:   12916364 MISS:          0 MSHR_MERGE:          0
cpu0->cpu0_ITLB LOAD         ACCESS:   12916364 HIT:   12916364 MISS:          0 MSHR_MERGE:          0
cpu0->cpu0_ITLB RFO          ACCESS:          0 HIT:          0 MISS:          0 MSHR_MERGE:          0
cpu0->cpu0_ITLB PREFETCH     ACCESS:          0 HIT:          0 MISS:          0 MSHR_MERGE:          0
cpu0->cpu0_ITLB WRITE        ACCESS:          0 HIT:          0 MISS:          0 MSHR_MERGE:          0
cpu0->cpu0_ITLB TRANSLATION  ACCESS:          0 HIT:          0 MISS:          0 MSHR_MERGE:          0
cpu0->cpu0_ITLB PREFETCH REQUESTED:          0 ISSUED:          0 USEFUL:          0 USELESS:          0
cpu0->cpu0_ITLB AVERAGE MISS LATENCY: - cycles
cpu0->cpu0_DTLB TOTAL        ACCESS:   18450483 HIT:   18331496 MISS:     118987 MSHR_MERGE:      55907
cpu0->cpu0_DTLB LOAD         ACCESS:   18450483 HIT:   18331496 MISS:     118987 MSHR_MERGE:      55907
cpu0->cpu0_DTLB RFO          ACCESS:          0 HIT:          0 MISS:          0 MSHR_MERGE:          0
cpu0->cpu0_DTLB PREFETCH     ACCESS:          0 HIT:          0 MISS:          0 MSHR_MERGE:          0
cpu0->cpu0_DTLB WRITE        ACCESS:          0 HIT:          0 MISS:          0 MSHR_MERGE:          0
cpu0->cpu0_DTLB TRANSLATION  ACCESS:          0 HIT:          0 MISS:          0 MSHR_MERGE:          0
cpu0->cpu0_DTLB PREFETCH REQUESTED:          0 ISSUED:          0 USEFUL:          0 USELESS:          0
cpu0->cpu0_DTLB AVERAGE MISS LATENCY: 294.8 cycles
cpu0->LLC TOTAL        ACCESS:    3987857 HIT:    1759478 MISS:    2228379 MSHR_MERGE:          0
cpu0->LLC LOAD         ACCESS:     547470 HIT:          0 MISS:     547470 MSHR_MERGE:          0
cpu0->LLC RFO          ACCESS:    1700857 HIT:      58489 MISS:    1642368 MSHR_MERGE:          0
cpu0->LLC PREFETCH     ACCESS:          0 HIT:          0 MISS:          0 MSHR_MERGE:          0
cpu0->LLC WRITE        ACCESS:    1700992 HIT:    1700989 MISS:          3 MSHR_MERGE:          0
cpu0->LLC TRANSLATION  ACCESS:      38538 HIT:          0 MISS:      38538 MSHR_MERGE:          0
cpu0->LLC PREFETCH REQUESTED:          0 ISSUED:          0 USEFUL:          0 USELESS:          0
cpu0->LLC AVERAGE MISS LATENCY: 212.9 cycles

DRAM Statistics

Channel 0 RQ ROW_BUFFER_HIT:      18571
  ROW_BUFFER_MISS:    2209804
  AVG DBUS CONGESTED CYCLE: 3.245
Channel 0 WQ ROW_BUFFER_HIT:     241109
  ROW_BUFFER_MISS:    1400950
  FULL:          0
Channel 0 REFRESHES ISSUED:       6261
[2025-09-15 17:52:30] END   suite=spec trace=619.lbm_s-3766B (rc=0)
