[2025-09-15 18:53:33] START suite=spec trace=620.omnetpp_s-874B
CMD: ./bin/champsim -w 20000000 -i 100000000 /home/ho/prefetch_aware_insertion_ptr/traces/spec2k17/620.omnetpp_s-874B.champsimtrace.xz
[VMEM] WARNING: physical memory size is smaller than virtual memory size.

*** ChampSim Multicore Out-of-Order Simulator ***
Warmup Instructions: 20000000
Simulation Instructions: 100000000
Number of CPUs: 1
Page size: 4096

Off-chip DRAM Size: 16 GiB Channels: 1 Width: 64-bit Data Rate: 3205 MT/s
Heartbeat CPU 0 instructions: 10000000 cycles: 5693763 heartbeat IPC: 1.756 cumulative IPC: 1.756 (Simulation time: 00 hr 01 min 08 sec)
Heartbeat CPU 0 instructions: 20000004 cycles: 10407455 heartbeat IPC: 2.121 cumulative IPC: 1.922 (Simulation time: 00 hr 02 min 09 sec)
Warmup finished CPU 0 instructions: 20000004 cycles: 10407455 cumulative IPC: 1.922 (Simulation time: 00 hr 02 min 09 sec)
Warmup complete CPU 0 instructions: 20000004 cycles: 10407455 cumulative IPC: 1.922 (Simulation time: 00 hr 02 min 09 sec)
Heartbeat CPU 0 instructions: 30000007 cycles: 33103108 heartbeat IPC: 0.4406 cumulative IPC: 0.4406 (Simulation time: 00 hr 04 min 50 sec)
Heartbeat CPU 0 instructions: 40000010 cycles: 55785894 heartbeat IPC: 0.4409 cumulative IPC: 0.4407 (Simulation time: 00 hr 07 min 22 sec)
Heartbeat CPU 0 instructions: 50000010 cycles: 78304079 heartbeat IPC: 0.4441 cumulative IPC: 0.4418 (Simulation time: 00 hr 10 min 00 sec)
Heartbeat CPU 0 instructions: 60000010 cycles: 99724334 heartbeat IPC: 0.4668 cumulative IPC: 0.4478 (Simulation time: 00 hr 12 min 31 sec)
Heartbeat CPU 0 instructions: 70000010 cycles: 120255849 heartbeat IPC: 0.4871 cumulative IPC: 0.4552 (Simulation time: 00 hr 14 min 38 sec)
Heartbeat CPU 0 instructions: 80000011 cycles: 141174128 heartbeat IPC: 0.4781 cumulative IPC: 0.4588 (Simulation time: 00 hr 16 min 47 sec)
Heartbeat CPU 0 instructions: 90000011 cycles: 161554072 heartbeat IPC: 0.4907 cumulative IPC: 0.4631 (Simulation time: 00 hr 18 min 50 sec)
Heartbeat CPU 0 instructions: 100000014 cycles: 183005007 heartbeat IPC: 0.4662 cumulative IPC: 0.4635 (Simulation time: 00 hr 20 min 55 sec)
Heartbeat CPU 0 instructions: 110000015 cycles: 203807153 heartbeat IPC: 0.4807 cumulative IPC: 0.4654 (Simulation time: 00 hr 22 min 12 sec)
Simulation finished CPU 0 instructions: 100000001 cycles: 214118987 cumulative IPC: 0.467 (Simulation time: 00 hr 23 min 26 sec)
Simulation complete CPU 0 instructions: 100000001 cycles: 214118987 cumulative IPC: 0.467 (Simulation time: 00 hr 23 min 26 sec)

ChampSim completed all CPUs

=== Simulation ===
CPU 0 runs /home/ho/prefetch_aware_insertion_ptr/traces/spec2k17/620.omnetpp_s-874B.champsimtrace.xz

Region of Interest Statistics

CPU 0 cumulative IPC: 0.467 instructions: 100000001 cycles: 214118987
CPU 0 Branch Prediction Accuracy: 94.14% MPKI: 12.19 Average ROB Occupancy at Mispredict: 60.1
Branch type MPKI
BRANCH_DIRECT_JUMP: 0.9299
BRANCH_INDIRECT: 0.1253
BRANCH_CONDITIONAL: 10
BRANCH_DIRECT_CALL: 0.00118
BRANCH_INDIRECT_CALL: 0.7337
BRANCH_RETURN: 0.3969


====Backend Stall Breakdown====
ROB_STALL: 3571441
LQ_STALL: 7
SQ_STALL: 10824900


====ROB Stall Breakdown====

== Average ==
ADDR_TRANS: 165.50386
REPLAY_LOAD: 81.75154
NON_REPLAY_LOAD: 14.350063

== Total ==
ADDR_TRANS: 1133867
REPLAY_LOAD: 622865
NON_REPLAY_LOAD: 1814709

== Counts ==
ADDR_TRANS: 6851
REPLAY_LOAD: 7619
NON_REPLAY_LOAD: 126460

cpu0->cpu0_STLB TOTAL        ACCESS:    2060509 HIT:    1631061 MISS:     429448 MSHR_MERGE:          0
cpu0->cpu0_STLB LOAD         ACCESS:    2060509 HIT:    1631061 MISS:     429448 MSHR_MERGE:          0
cpu0->cpu0_STLB RFO          ACCESS:          0 HIT:          0 MISS:          0 MSHR_MERGE:          0
cpu0->cpu0_STLB PREFETCH     ACCESS:          0 HIT:          0 MISS:          0 MSHR_MERGE:          0
cpu0->cpu0_STLB WRITE        ACCESS:          0 HIT:          0 MISS:          0 MSHR_MERGE:          0
cpu0->cpu0_STLB TRANSLATION  ACCESS:          0 HIT:          0 MISS:          0 MSHR_MERGE:          0
cpu0->cpu0_STLB PREFETCH REQUESTED:          0 ISSUED:          0 USEFUL:          0 USELESS:          0
cpu0->cpu0_STLB AVERAGE MISS LATENCY: 223.2 cycles
cpu0->cpu0_L2C TOTAL        ACCESS:    3869821 HIT:    1789259 MISS:    2080562 MSHR_MERGE:          0
cpu0->cpu0_L2C LOAD         ACCESS:    1733430 HIT:     560423 MISS:    1173007 MSHR_MERGE:          0
cpu0->cpu0_L2C RFO          ACCESS:     243552 HIT:      63821 MISS:     179731 MSHR_MERGE:          0
cpu0->cpu0_L2C PREFETCH     ACCESS:          0 HIT:          0 MISS:          0 MSHR_MERGE:          0
cpu0->cpu0_L2C WRITE        ACCESS:     954077 HIT:     952296 MISS:       1781 MSHR_MERGE:          0
cpu0->cpu0_L2C TRANSLATION  ACCESS:     938762 HIT:     212719 MISS:     726043 MSHR_MERGE:          0
cpu0->cpu0_L2C PREFETCH REQUESTED:          0 ISSUED:          0 USEFUL:          0 USELESS:          0
cpu0->cpu0_L2C AVERAGE MISS LATENCY: 98.06 cycles
cpu0->cpu0_L1I TOTAL        ACCESS:   13825434 HIT:   13777593 MISS:      47841 MSHR_MERGE:      10933
cpu0->cpu0_L1I LOAD         ACCESS:   13825434 HIT:   13777593 MISS:      47841 MSHR_MERGE:      10933
cpu0->cpu0_L1I RFO          ACCESS:          0 HIT:          0 MISS:          0 MSHR_MERGE:          0
cpu0->cpu0_L1I PREFETCH     ACCESS:          0 HIT:          0 MISS:          0 MSHR_MERGE:          0
cpu0->cpu0_L1I WRITE        ACCESS:          0 HIT:          0 MISS:          0 MSHR_MERGE:          0
cpu0->cpu0_L1I TRANSLATION  ACCESS:          0 HIT:          0 MISS:          0 MSHR_MERGE:          0
cpu0->cpu0_L1I PREFETCH REQUESTED:          0 ISSUED:          0 USEFUL:          0 USELESS:          0
cpu0->cpu0_L1I AVERAGE MISS LATENCY: 24.12 cycles
cpu0->cpu0_L1D TOTAL        ACCESS:   38841152 HIT:   35082800 MISS:    3758352 MSHR_MERGE:     879507
cpu0->cpu0_L1D LOAD         ACCESS:   19898487 HIT:   17762070 MISS:    2136417 MSHR_MERGE:     439894
cpu0->cpu0_L1D RFO          ACCESS:          0 HIT:          0 MISS:          0 MSHR_MERGE:          0
cpu0->cpu0_L1D PREFETCH     ACCESS:          0 HIT:          0 MISS:          0 MSHR_MERGE:          0
cpu0->cpu0_L1D WRITE        ACCESS:   17920674 HIT:   17240997 MISS:     679677 MSHR_MERGE:     436117
cpu0->cpu0_L1D TRANSLATION  ACCESS:    1021991 HIT:      79733 MISS:     942258 MSHR_MERGE:       3496
cpu0->cpu0_L1D PREFETCH REQUESTED:          0 ISSUED:          0 USEFUL:          0 USELESS:          0
cpu0->cpu0_L1D AVERAGE MISS LATENCY: 82.39 cycles
cpu0->cpu0_ITLB TOTAL        ACCESS:   12029441 HIT:   11705258 MISS:     324183 MSHR_MERGE:     167167
cpu0->cpu0_ITLB LOAD         ACCESS:   12029441 HIT:   11705258 MISS:     324183 MSHR_MERGE:     167167
cpu0->cpu0_ITLB RFO          ACCESS:          0 HIT:          0 MISS:          0 MSHR_MERGE:          0
cpu0->cpu0_ITLB PREFETCH     ACCESS:          0 HIT:          0 MISS:          0 MSHR_MERGE:          0
cpu0->cpu0_ITLB WRITE        ACCESS:          0 HIT:          0 MISS:          0 MSHR_MERGE:          0
cpu0->cpu0_ITLB TRANSLATION  ACCESS:          0 HIT:          0 MISS:          0 MSHR_MERGE:          0
cpu0->cpu0_ITLB PREFETCH REQUESTED:          0 ISSUED:          0 USEFUL:          0 USELESS:          0
cpu0->cpu0_ITLB AVERAGE MISS LATENCY: 7.998 cycles
cpu0->cpu0_DTLB TOTAL        ACCESS:   35887600 HIT:   33670387 MISS:    2217213 MSHR_MERGE:     313720
cpu0->cpu0_DTLB LOAD         ACCESS:   35887600 HIT:   33670387 MISS:    2217213 MSHR_MERGE:     313720
cpu0->cpu0_DTLB RFO          ACCESS:          0 HIT:          0 MISS:          0 MSHR_MERGE:          0
cpu0->cpu0_DTLB PREFETCH     ACCESS:          0 HIT:          0 MISS:          0 MSHR_MERGE:          0
cpu0->cpu0_DTLB WRITE        ACCESS:          0 HIT:          0 MISS:          0 MSHR_MERGE:          0
cpu0->cpu0_DTLB TRANSLATION  ACCESS:          0 HIT:          0 MISS:          0 MSHR_MERGE:          0
cpu0->cpu0_DTLB PREFETCH REQUESTED:          0 ISSUED:          0 USEFUL:          0 USELESS:          0
cpu0->cpu0_DTLB AVERAGE MISS LATENCY: 55.35 cycles
cpu0->LLC TOTAL        ACCESS:    2759208 HIT:    1262341 MISS:    1496867 MSHR_MERGE:          0
cpu0->LLC LOAD         ACCESS:    1173007 HIT:     286955 MISS:     886052 MSHR_MERGE:          0
cpu0->LLC RFO          ACCESS:     179731 HIT:      67560 MISS:     112171 MSHR_MERGE:          0
cpu0->LLC PREFETCH     ACCESS:          0 HIT:          0 MISS:          0 MSHR_MERGE:          0
cpu0->LLC WRITE        ACCESS:     680427 HIT:     677684 MISS:       2743 MSHR_MERGE:          0
cpu0->LLC TRANSLATION  ACCESS:     726043 HIT:     230142 MISS:     495901 MSHR_MERGE:          0
cpu0->LLC PREFETCH REQUESTED:          0 ISSUED:          0 USEFUL:          0 USELESS:          0
cpu0->LLC AVERAGE MISS LATENCY: 97.54 cycles

DRAM Statistics

Channel 0 RQ ROW_BUFFER_HIT:       7423
  ROW_BUFFER_MISS:    1486692
  AVG DBUS CONGESTED CYCLE: 9.55
Channel 0 WQ ROW_BUFFER_HIT:     155408
  ROW_BUFFER_MISS:     330945
  FULL:          0
Channel 0 REFRESHES ISSUED:      17843
[2025-09-15 19:17:00] END   suite=spec trace=620.omnetpp_s-874B (rc=0)
