[2025-09-15 15:33:55] START suite=spec trace=621.wrf_s-8065B
CMD: ./bin/champsim -w 20000000 -i 100000000 /home/ho/prefetch_aware_insertion_ptr/traces/spec2k17/621.wrf_s-8065B.champsimtrace.xz
[VMEM] WARNING: physical memory size is smaller than virtual memory size.

*** ChampSim Multicore Out-of-Order Simulator ***
Warmup Instructions: 20000000
Simulation Instructions: 100000000
Number of CPUs: 1
Page size: 4096

Off-chip DRAM Size: 16 GiB Channels: 1 Width: 64-bit Data Rate: 3205 MT/s
Heartbeat CPU 0 instructions: 10000004 cycles: 3084982 heartbeat IPC: 3.242 cumulative IPC: 3.242 (Simulation time: 00 hr 00 min 40 sec)
Warmup finished CPU 0 instructions: 20000001 cycles: 5113137 cumulative IPC: 3.911 (Simulation time: 00 hr 01 min 11 sec)
Warmup complete CPU 0 instructions: 20000001 cycles: 5113137 cumulative IPC: 3.911 (Simulation time: 00 hr 01 min 11 sec)
Heartbeat CPU 0 instructions: 20000006 cycles: 5113138 heartbeat IPC: 4.931 cumulative IPC: 5 (Simulation time: 00 hr 01 min 11 sec)
Heartbeat CPU 0 instructions: 30000007 cycles: 10789543 heartbeat IPC: 1.762 cumulative IPC: 1.762 (Simulation time: 00 hr 02 min 08 sec)
Heartbeat CPU 0 instructions: 40000010 cycles: 16167415 heartbeat IPC: 1.859 cumulative IPC: 1.809 (Simulation time: 00 hr 03 min 03 sec)
Heartbeat CPU 0 instructions: 50000010 cycles: 21320092 heartbeat IPC: 1.941 cumulative IPC: 1.851 (Simulation time: 00 hr 03 min 57 sec)
Heartbeat CPU 0 instructions: 60000011 cycles: 26934062 heartbeat IPC: 1.781 cumulative IPC: 1.833 (Simulation time: 00 hr 04 min 59 sec)
Heartbeat CPU 0 instructions: 70000013 cycles: 31687176 heartbeat IPC: 2.104 cumulative IPC: 1.882 (Simulation time: 00 hr 05 min 55 sec)
Heartbeat CPU 0 instructions: 80000015 cycles: 37662331 heartbeat IPC: 1.674 cumulative IPC: 1.843 (Simulation time: 00 hr 06 min 59 sec)
Heartbeat CPU 0 instructions: 90000018 cycles: 42261739 heartbeat IPC: 2.174 cumulative IPC: 1.884 (Simulation time: 00 hr 07 min 55 sec)
Heartbeat CPU 0 instructions: 100000018 cycles: 48380024 heartbeat IPC: 1.634 cumulative IPC: 1.849 (Simulation time: 00 hr 08 min 59 sec)
Heartbeat CPU 0 instructions: 110000020 cycles: 52929107 heartbeat IPC: 2.198 cumulative IPC: 1.882 (Simulation time: 00 hr 09 min 52 sec)
Simulation finished CPU 0 instructions: 100000000 cycles: 55279739 cumulative IPC: 1.809 (Simulation time: 00 hr 11 min 09 sec)
Simulation complete CPU 0 instructions: 100000000 cycles: 55279739 cumulative IPC: 1.809 (Simulation time: 00 hr 11 min 09 sec)

ChampSim completed all CPUs

=== Simulation ===
CPU 0 runs /home/ho/prefetch_aware_insertion_ptr/traces/spec2k17/621.wrf_s-8065B.champsimtrace.xz

Region of Interest Statistics

CPU 0 cumulative IPC: 1.809 instructions: 100000000 cycles: 55279739
CPU 0 Branch Prediction Accuracy: 96.33% MPKI: 1.458 Average ROB Occupancy at Mispredict: 205.1
Branch type MPKI
BRANCH_DIRECT_JUMP: 0.00019
BRANCH_INDIRECT: 0
BRANCH_CONDITIONAL: 1.456
BRANCH_DIRECT_CALL: 0.00052
BRANCH_INDIRECT_CALL: 0
BRANCH_RETURN: 0.00051


====Backend Stall Breakdown====
ROB_STALL: 20105473
LQ_STALL: 16526
SQ_STALL: 2911566


====ROB Stall Breakdown====

== Average ==
ADDR_TRANS: 283.79114
REPLAY_LOAD: 114.655975
NON_REPLAY_LOAD: 21.630049

== Total ==
ADDR_TRANS: 845130
REPLAY_LOAD: 360937
NON_REPLAY_LOAD: 18899406

== Counts ==
ADDR_TRANS: 2978
REPLAY_LOAD: 3148
NON_REPLAY_LOAD: 873757

cpu0->cpu0_STLB TOTAL        ACCESS:      63955 HIT:      57791 MISS:       6164 MSHR_MERGE:          0
cpu0->cpu0_STLB LOAD         ACCESS:      63955 HIT:      57791 MISS:       6164 MSHR_MERGE:          0
cpu0->cpu0_STLB RFO          ACCESS:          0 HIT:          0 MISS:          0 MSHR_MERGE:          0
cpu0->cpu0_STLB PREFETCH     ACCESS:          0 HIT:          0 MISS:          0 MSHR_MERGE:          0
cpu0->cpu0_STLB WRITE        ACCESS:          0 HIT:          0 MISS:          0 MSHR_MERGE:          0
cpu0->cpu0_STLB TRANSLATION  ACCESS:          0 HIT:          0 MISS:          0 MSHR_MERGE:          0
cpu0->cpu0_STLB PREFETCH REQUESTED:          0 ISSUED:          0 USEFUL:          0 USELESS:          0
cpu0->cpu0_STLB AVERAGE MISS LATENCY: 429.9 cycles
cpu0->cpu0_L2C TOTAL        ACCESS:    1964452 HIT:     957669 MISS:    1006783 MSHR_MERGE:          0
cpu0->cpu0_L2C LOAD         ACCESS:    1139424 HIT:     395197 MISS:     744227 MSHR_MERGE:          0
cpu0->cpu0_L2C RFO          ACCESS:     277601 HIT:      23945 MISS:     253656 MSHR_MERGE:          0
cpu0->cpu0_L2C PREFETCH     ACCESS:          0 HIT:          0 MISS:          0 MSHR_MERGE:          0
cpu0->cpu0_L2C WRITE        ACCESS:     539606 HIT:     538151 MISS:       1455 MSHR_MERGE:          0
cpu0->cpu0_L2C TRANSLATION  ACCESS:       7821 HIT:        376 MISS:       7445 MSHR_MERGE:          0
cpu0->cpu0_L2C PREFETCH REQUESTED:          0 ISSUED:          0 USEFUL:          0 USELESS:          0
cpu0->cpu0_L2C AVERAGE MISS LATENCY: 139 cycles
cpu0->cpu0_L1I TOTAL        ACCESS:   15281237 HIT:   15276805 MISS:       4432 MSHR_MERGE:       1732
cpu0->cpu0_L1I LOAD         ACCESS:   15281237 HIT:   15276805 MISS:       4432 MSHR_MERGE:       1732
cpu0->cpu0_L1I RFO          ACCESS:          0 HIT:          0 MISS:          0 MSHR_MERGE:          0
cpu0->cpu0_L1I PREFETCH     ACCESS:          0 HIT:          0 MISS:          0 MSHR_MERGE:          0
cpu0->cpu0_L1I WRITE        ACCESS:          0 HIT:          0 MISS:          0 MSHR_MERGE:          0
cpu0->cpu0_L1I TRANSLATION  ACCESS:          0 HIT:          0 MISS:          0 MSHR_MERGE:          0
cpu0->cpu0_L1I PREFETCH REQUESTED:          0 ISSUED:          0 USEFUL:          0 USELESS:          0
cpu0->cpu0_L1I AVERAGE MISS LATENCY: 180.2 cycles
cpu0->cpu0_L1D TOTAL        ACCESS:   23601926 HIT:   19671232 MISS:    3930694 MSHR_MERGE:    2508515
cpu0->cpu0_L1D LOAD         ACCESS:   19361586 HIT:   16674974 MISS:    2686612 MSHR_MERGE:    1549880
cpu0->cpu0_L1D RFO          ACCESS:          0 HIT:          0 MISS:          0 MSHR_MERGE:          0
cpu0->cpu0_L1D PREFETCH     ACCESS:          0 HIT:          0 MISS:          0 MSHR_MERGE:          0
cpu0->cpu0_L1D WRITE        ACCESS:    4227988 HIT:    2991759 MISS:    1236229 MSHR_MERGE:     958603
cpu0->cpu0_L1D TRANSLATION  ACCESS:      12352 HIT:       4499 MISS:       7853 MSHR_MERGE:         32
cpu0->cpu0_L1D PREFETCH REQUESTED:          0 ISSUED:          0 USEFUL:          0 USELESS:          0
cpu0->cpu0_L1D AVERAGE MISS LATENCY: 110.9 cycles
cpu0->cpu0_ITLB TOTAL        ACCESS:   11721040 HIT:   11720910 MISS:        130 MSHR_MERGE:         96
cpu0->cpu0_ITLB LOAD         ACCESS:   11721040 HIT:   11720910 MISS:        130 MSHR_MERGE:         96
cpu0->cpu0_ITLB RFO          ACCESS:          0 HIT:          0 MISS:          0 MSHR_MERGE:          0
cpu0->cpu0_ITLB PREFETCH     ACCESS:          0 HIT:          0 MISS:          0 MSHR_MERGE:          0
cpu0->cpu0_ITLB WRITE        ACCESS:          0 HIT:          0 MISS:          0 MSHR_MERGE:          0
cpu0->cpu0_ITLB TRANSLATION  ACCESS:          0 HIT:          0 MISS:          0 MSHR_MERGE:          0
cpu0->cpu0_ITLB PREFETCH REQUESTED:          0 ISSUED:          0 USEFUL:          0 USELESS:          0
cpu0->cpu0_ITLB AVERAGE MISS LATENCY: 590.2 cycles
cpu0->cpu0_DTLB TOTAL        ACCESS:   22865180 HIT:   22744397 MISS:     120783 MSHR_MERGE:      56862
cpu0->cpu0_DTLB LOAD         ACCESS:   22865180 HIT:   22744397 MISS:     120783 MSHR_MERGE:      56862
cpu0->cpu0_DTLB RFO          ACCESS:          0 HIT:          0 MISS:          0 MSHR_MERGE:          0
cpu0->cpu0_DTLB PREFETCH     ACCESS:          0 HIT:          0 MISS:          0 MSHR_MERGE:          0
cpu0->cpu0_DTLB WRITE        ACCESS:          0 HIT:          0 MISS:          0 MSHR_MERGE:          0
cpu0->cpu0_DTLB TRANSLATION  ACCESS:          0 HIT:          0 MISS:          0 MSHR_MERGE:          0
cpu0->cpu0_DTLB PREFETCH REQUESTED:          0 ISSUED:          0 USEFUL:          0 USELESS:          0
cpu0->cpu0_DTLB AVERAGE MISS LATENCY: 46.26 cycles
cpu0->LLC TOTAL        ACCESS:    1497274 HIT:     819198 MISS:     678076 MSHR_MERGE:          0
cpu0->LLC LOAD         ACCESS:     744227 HIT:     284957 MISS:     459270 MSHR_MERGE:          0
cpu0->LLC RFO          ACCESS:     253656 HIT:      43098 MISS:     210558 MSHR_MERGE:          0
cpu0->LLC PREFETCH     ACCESS:          0 HIT:          0 MISS:          0 MSHR_MERGE:          0
cpu0->LLC WRITE        ACCESS:     491946 HIT:     491126 MISS:        820 MSHR_MERGE:          0
cpu0->LLC TRANSLATION  ACCESS:       7445 HIT:         17 MISS:       7428 MSHR_MERGE:          0
cpu0->LLC PREFETCH REQUESTED:          0 ISSUED:          0 USEFUL:          0 USELESS:          0
cpu0->LLC AVERAGE MISS LATENCY: 161 cycles

DRAM Statistics

Channel 0 RQ ROW_BUFFER_HIT:      38178
  ROW_BUFFER_MISS:     638816
  AVG DBUS CONGESTED CYCLE: 4.135
Channel 0 WQ ROW_BUFFER_HIT:      36656
  ROW_BUFFER_MISS:     295497
  FULL:          0
Channel 0 REFRESHES ISSUED:       4606
[2025-09-15 15:45:04] END   suite=spec trace=621.wrf_s-8065B (rc=0)
