[2025-09-15 18:38:33] START suite=spec trace=623.xalancbmk_s-10B
CMD: ./bin/champsim -w 20000000 -i 100000000 /home/ho/prefetch_aware_insertion_ptr/traces/spec2k17/623.xalancbmk_s-10B.champsimtrace.xz
[VMEM] WARNING: physical memory size is smaller than virtual memory size.

*** ChampSim Multicore Out-of-Order Simulator ***
Warmup Instructions: 20000000
Simulation Instructions: 100000000
Number of CPUs: 1
Page size: 4096

Off-chip DRAM Size: 16 GiB Channels: 1 Width: 64-bit Data Rate: 3205 MT/s
Heartbeat CPU 0 instructions: 10000003 cycles: 3288265 heartbeat IPC: 3.041 cumulative IPC: 3.041 (Simulation time: 00 hr 00 min 42 sec)
Warmup finished CPU 0 instructions: 20000002 cycles: 5368566 cumulative IPC: 3.725 (Simulation time: 00 hr 01 min 16 sec)
Warmup complete CPU 0 instructions: 20000002 cycles: 5368566 cumulative IPC: 3.725 (Simulation time: 00 hr 01 min 16 sec)
Heartbeat CPU 0 instructions: 20000007 cycles: 5368567 heartbeat IPC: 4.807 cumulative IPC: 5 (Simulation time: 00 hr 01 min 16 sec)
Heartbeat CPU 0 instructions: 30000008 cycles: 37183915 heartbeat IPC: 0.3143 cumulative IPC: 0.3143 (Simulation time: 00 hr 04 min 33 sec)
Heartbeat CPU 0 instructions: 40000009 cycles: 65478458 heartbeat IPC: 0.3534 cumulative IPC: 0.3327 (Simulation time: 00 hr 07 min 21 sec)
Heartbeat CPU 0 instructions: 50000013 cycles: 100961704 heartbeat IPC: 0.2818 cumulative IPC: 0.3138 (Simulation time: 00 hr 10 min 30 sec)
Heartbeat CPU 0 instructions: 60000015 cycles: 133760653 heartbeat IPC: 0.3049 cumulative IPC: 0.3115 (Simulation time: 00 hr 13 min 43 sec)
Heartbeat CPU 0 instructions: 70000017 cycles: 164835518 heartbeat IPC: 0.3218 cumulative IPC: 0.3135 (Simulation time: 00 hr 16 min 55 sec)
Heartbeat CPU 0 instructions: 80000019 cycles: 198056379 heartbeat IPC: 0.301 cumulative IPC: 0.3114 (Simulation time: 00 hr 20 min 01 sec)
Heartbeat CPU 0 instructions: 90000020 cycles: 226374159 heartbeat IPC: 0.3531 cumulative IPC: 0.3167 (Simulation time: 00 hr 22 min 38 sec)
Heartbeat CPU 0 instructions: 100000022 cycles: 258245859 heartbeat IPC: 0.3138 cumulative IPC: 0.3164 (Simulation time: 00 hr 25 min 49 sec)
Heartbeat CPU 0 instructions: 110000023 cycles: 283051700 heartbeat IPC: 0.4031 cumulative IPC: 0.3241 (Simulation time: 00 hr 28 min 16 sec)
Simulation finished CPU 0 instructions: 100000000 cycles: 305674743 cumulative IPC: 0.3271 (Simulation time: 00 hr 30 min 54 sec)
Simulation complete CPU 0 instructions: 100000000 cycles: 305674743 cumulative IPC: 0.3271 (Simulation time: 00 hr 30 min 54 sec)

ChampSim completed all CPUs

=== Simulation ===
CPU 0 runs /home/ho/prefetch_aware_insertion_ptr/traces/spec2k17/623.xalancbmk_s-10B.champsimtrace.xz

Region of Interest Statistics

CPU 0 cumulative IPC: 0.3271 instructions: 100000000 cycles: 305674743
CPU 0 Branch Prediction Accuracy: 94.61% MPKI: 13.96 Average ROB Occupancy at Mispredict: 36.99
Branch type MPKI
BRANCH_DIRECT_JUMP: 0.09357
BRANCH_INDIRECT: 0.01887
BRANCH_CONDITIONAL: 13.34
BRANCH_DIRECT_CALL: 0.0001
BRANCH_INDIRECT_CALL: 0.1238
BRANCH_RETURN: 0.388


====Backend Stall Breakdown====
ROB_STALL: 571245
LQ_STALL: 19360
SQ_STALL: 218270


====ROB Stall Breakdown====

== Average ==
ADDR_TRANS: 183.21187
REPLAY_LOAD: 107.63866
NON_REPLAY_LOAD: 12.503307

== Total ==
ADDR_TRANS: 21619
REPLAY_LOAD: 12809
NON_REPLAY_LOAD: 536817

== Counts ==
ADDR_TRANS: 118
REPLAY_LOAD: 119
NON_REPLAY_LOAD: 42934

cpu0->cpu0_STLB TOTAL        ACCESS:     727405 HIT:     237856 MISS:     489549 MSHR_MERGE:          0
cpu0->cpu0_STLB LOAD         ACCESS:     727405 HIT:     237856 MISS:     489549 MSHR_MERGE:          0
cpu0->cpu0_STLB RFO          ACCESS:          0 HIT:          0 MISS:          0 MSHR_MERGE:          0
cpu0->cpu0_STLB PREFETCH     ACCESS:          0 HIT:          0 MISS:          0 MSHR_MERGE:          0
cpu0->cpu0_STLB WRITE        ACCESS:          0 HIT:          0 MISS:          0 MSHR_MERGE:          0
cpu0->cpu0_STLB TRANSLATION  ACCESS:          0 HIT:          0 MISS:          0 MSHR_MERGE:          0
cpu0->cpu0_STLB PREFETCH REQUESTED:          0 ISSUED:          0 USEFUL:          0 USELESS:          0
cpu0->cpu0_STLB AVERAGE MISS LATENCY: 239.3 cycles
cpu0->cpu0_L2C TOTAL        ACCESS:    3878729 HIT:     653667 MISS:    3225062 MSHR_MERGE:          0
cpu0->cpu0_L2C LOAD         ACCESS:    2999334 HIT:     556410 MISS:    2442924 MSHR_MERGE:          0
cpu0->cpu0_L2C RFO          ACCESS:      42641 HIT:      14600 MISS:      28041 MSHR_MERGE:          0
cpu0->cpu0_L2C PREFETCH     ACCESS:          0 HIT:          0 MISS:          0 MSHR_MERGE:          0
cpu0->cpu0_L2C WRITE        ACCESS:      81007 HIT:      80570 MISS:        437 MSHR_MERGE:          0
cpu0->cpu0_L2C TRANSLATION  ACCESS:     755747 HIT:       2087 MISS:     753660 MSHR_MERGE:          0
cpu0->cpu0_L2C PREFETCH REQUESTED:          0 ISSUED:          0 USEFUL:          0 USELESS:          0
cpu0->cpu0_L2C AVERAGE MISS LATENCY: 121.7 cycles
cpu0->cpu0_L1I TOTAL        ACCESS:    3008600 HIT:    2519930 MISS:     488670 MSHR_MERGE:     128620
cpu0->cpu0_L1I LOAD         ACCESS:    3008600 HIT:    2519930 MISS:     488670 MSHR_MERGE:     128620
cpu0->cpu0_L1I RFO          ACCESS:          0 HIT:          0 MISS:          0 MSHR_MERGE:          0
cpu0->cpu0_L1I PREFETCH     ACCESS:          0 HIT:          0 MISS:          0 MSHR_MERGE:          0
cpu0->cpu0_L1I WRITE        ACCESS:          0 HIT:          0 MISS:          0 MSHR_MERGE:          0
cpu0->cpu0_L1I TRANSLATION  ACCESS:          0 HIT:          0 MISS:          0 MSHR_MERGE:          0
cpu0->cpu0_L1I PREFETCH REQUESTED:          0 ISSUED:          0 USEFUL:          0 USELESS:          0
cpu0->cpu0_L1I AVERAGE MISS LATENCY: 30.69 cycles
cpu0->cpu0_L1D TOTAL        ACCESS:   30064127 HIT:   23393105 MISS:    6671022 MSHR_MERGE:    3233349
cpu0->cpu0_L1D LOAD         ACCESS:   24216267 HIT:   18574011 MISS:    5642256 MSHR_MERGE:    3002972
cpu0->cpu0_L1D RFO          ACCESS:          0 HIT:          0 MISS:          0 MSHR_MERGE:          0
cpu0->cpu0_L1D PREFETCH     ACCESS:          0 HIT:          0 MISS:          0 MSHR_MERGE:          0
cpu0->cpu0_L1D WRITE        ACCESS:    4868990 HIT:    4610872 MISS:     258118 MSHR_MERGE:     215476
cpu0->cpu0_L1D TRANSLATION  ACCESS:     978870 HIT:     208222 MISS:     770648 MSHR_MERGE:      14901
cpu0->cpu0_L1D PREFETCH REQUESTED:          0 ISSUED:          0 USEFUL:          0 USELESS:          0
cpu0->cpu0_L1D AVERAGE MISS LATENCY: 124 cycles
cpu0->cpu0_ITLB TOTAL        ACCESS:    2491872 HIT:    2357143 MISS:     134729 MSHR_MERGE:      69832
cpu0->cpu0_ITLB LOAD         ACCESS:    2491872 HIT:    2357143 MISS:     134729 MSHR_MERGE:      69832
cpu0->cpu0_ITLB RFO          ACCESS:          0 HIT:          0 MISS:          0 MSHR_MERGE:          0
cpu0->cpu0_ITLB PREFETCH     ACCESS:          0 HIT:          0 MISS:          0 MSHR_MERGE:          0
cpu0->cpu0_ITLB WRITE        ACCESS:          0 HIT:          0 MISS:          0 MSHR_MERGE:          0
cpu0->cpu0_ITLB TRANSLATION  ACCESS:          0 HIT:          0 MISS:          0 MSHR_MERGE:          0
cpu0->cpu0_ITLB PREFETCH REQUESTED:          0 ISSUED:          0 USEFUL:          0 USELESS:          0
cpu0->cpu0_ITLB AVERAGE MISS LATENCY: 27.19 cycles
cpu0->cpu0_DTLB TOTAL        ACCESS:   28128493 HIT:   26450144 MISS:    1678349 MSHR_MERGE:    1015841
cpu0->cpu0_DTLB LOAD         ACCESS:   28128493 HIT:   26450144 MISS:    1678349 MSHR_MERGE:    1015841
cpu0->cpu0_DTLB RFO          ACCESS:          0 HIT:          0 MISS:          0 MSHR_MERGE:          0
cpu0->cpu0_DTLB PREFETCH     ACCESS:          0 HIT:          0 MISS:          0 MSHR_MERGE:          0
cpu0->cpu0_DTLB WRITE        ACCESS:          0 HIT:          0 MISS:          0 MSHR_MERGE:          0
cpu0->cpu0_DTLB TRANSLATION  ACCESS:          0 HIT:          0 MISS:          0 MSHR_MERGE:          0
cpu0->cpu0_DTLB PREFETCH REQUESTED:          0 ISSUED:          0 USEFUL:          0 USELESS:          0
cpu0->cpu0_DTLB AVERAGE MISS LATENCY: 180.4 cycles
cpu0->LLC TOTAL        ACCESS:    3267624 HIT:     190158 MISS:    3077466 MSHR_MERGE:          0
cpu0->LLC LOAD         ACCESS:    2442924 HIT:     140006 MISS:    2302918 MSHR_MERGE:          0
cpu0->LLC RFO          ACCESS:      28041 HIT:       3500 MISS:      24541 MSHR_MERGE:          0
cpu0->LLC PREFETCH     ACCESS:          0 HIT:          0 MISS:          0 MSHR_MERGE:          0
cpu0->LLC WRITE        ACCESS:      42999 HIT:      42746 MISS:        253 MSHR_MERGE:          0
cpu0->LLC TRANSLATION  ACCESS:     753660 HIT:       3906 MISS:     749754 MSHR_MERGE:          0
cpu0->LLC PREFETCH REQUESTED:          0 ISSUED:          0 USEFUL:          0 USELESS:          0
cpu0->LLC AVERAGE MISS LATENCY: 99.07 cycles

DRAM Statistics

Channel 0 RQ ROW_BUFFER_HIT:      37249
  ROW_BUFFER_MISS:    3039964
  AVG DBUS CONGESTED CYCLE: 4.288
Channel 0 WQ ROW_BUFFER_HIT:      13261
  ROW_BUFFER_MISS:      21723
  FULL:          0
Channel 0 REFRESHES ISSUED:      25473
[2025-09-15 19:09:28] END   suite=spec trace=623.xalancbmk_s-10B (rc=0)
