[2025-09-15 16:33:04] START suite=spec trace=623.xalancbmk_s-700B
CMD: ./bin/champsim -w 20000000 -i 100000000 /home/ho/prefetch_aware_insertion_ptr/traces/spec2k17/623.xalancbmk_s-700B.champsimtrace.xz
[VMEM] WARNING: physical memory size is smaller than virtual memory size.

*** ChampSim Multicore Out-of-Order Simulator ***
Warmup Instructions: 20000000
Simulation Instructions: 100000000
Number of CPUs: 1
Page size: 4096

Off-chip DRAM Size: 16 GiB Channels: 1 Width: 64-bit Data Rate: 3205 MT/s
Heartbeat CPU 0 instructions: 10000003 cycles: 2468483 heartbeat IPC: 4.051 cumulative IPC: 4.051 (Simulation time: 00 hr 00 min 37 sec)
Heartbeat CPU 0 instructions: 20000003 cycles: 4612767 heartbeat IPC: 4.664 cumulative IPC: 4.336 (Simulation time: 00 hr 01 min 10 sec)
Warmup finished CPU 0 instructions: 20000003 cycles: 4612767 cumulative IPC: 4.336 (Simulation time: 00 hr 01 min 10 sec)
Warmup complete CPU 0 instructions: 20000003 cycles: 4612767 cumulative IPC: 4.336 (Simulation time: 00 hr 01 min 10 sec)
Heartbeat CPU 0 instructions: 30000006 cycles: 18024144 heartbeat IPC: 0.7456 cumulative IPC: 0.7456 (Simulation time: 00 hr 03 min 03 sec)
Heartbeat CPU 0 instructions: 40000007 cycles: 28510992 heartbeat IPC: 0.9536 cumulative IPC: 0.8369 (Simulation time: 00 hr 04 min 36 sec)
Heartbeat CPU 0 instructions: 50000007 cycles: 38382071 heartbeat IPC: 1.013 cumulative IPC: 0.8884 (Simulation time: 00 hr 06 min 04 sec)
Heartbeat CPU 0 instructions: 60000007 cycles: 47195296 heartbeat IPC: 1.135 cumulative IPC: 0.9394 (Simulation time: 00 hr 07 min 25 sec)
Heartbeat CPU 0 instructions: 70000007 cycles: 58547258 heartbeat IPC: 0.8809 cumulative IPC: 0.9271 (Simulation time: 00 hr 09 min 09 sec)
Heartbeat CPU 0 instructions: 80000009 cycles: 72252689 heartbeat IPC: 0.7296 cumulative IPC: 0.8871 (Simulation time: 00 hr 11 min 08 sec)
Heartbeat CPU 0 instructions: 90000009 cycles: 83698511 heartbeat IPC: 0.8737 cumulative IPC: 0.8851 (Simulation time: 00 hr 12 min 53 sec)
Heartbeat CPU 0 instructions: 100000010 cycles: 96751788 heartbeat IPC: 0.7661 cumulative IPC: 0.8683 (Simulation time: 00 hr 14 min 38 sec)
Heartbeat CPU 0 instructions: 110000014 cycles: 107537065 heartbeat IPC: 0.9272 cumulative IPC: 0.8744 (Simulation time: 00 hr 16 min 13 sec)
Simulation finished CPU 0 instructions: 100000002 cycles: 112901993 cumulative IPC: 0.8857 (Simulation time: 00 hr 17 min 41 sec)
Simulation complete CPU 0 instructions: 100000002 cycles: 112901993 cumulative IPC: 0.8857 (Simulation time: 00 hr 17 min 41 sec)

ChampSim completed all CPUs

=== Simulation ===
CPU 0 runs /home/ho/prefetch_aware_insertion_ptr/traces/spec2k17/623.xalancbmk_s-700B.champsimtrace.xz

Region of Interest Statistics

CPU 0 cumulative IPC: 0.8857 instructions: 100000002 cycles: 112901993
CPU 0 Branch Prediction Accuracy: 95.57% MPKI: 12.04 Average ROB Occupancy at Mispredict: 25.15
Branch type MPKI
BRANCH_DIRECT_JUMP: 0.138
BRANCH_INDIRECT: 0.4134
BRANCH_CONDITIONAL: 9.241
BRANCH_DIRECT_CALL: 0.00274
BRANCH_INDIRECT_CALL: 0.468
BRANCH_RETURN: 1.776


====Backend Stall Breakdown====
ROB_STALL: 37215137
LQ_STALL: 124638
SQ_STALL: 502898


====ROB Stall Breakdown====

== Average ==
ADDR_TRANS: 37.926304
REPLAY_LOAD: 18.745993
NON_REPLAY_LOAD: 16.56467

== Total ==
ADDR_TRANS: 1989083
REPLAY_LOAD: 1111000
NON_REPLAY_LOAD: 34115054

== Counts ==
ADDR_TRANS: 52446
REPLAY_LOAD: 59266
NON_REPLAY_LOAD: 2059507

cpu0->cpu0_STLB TOTAL        ACCESS:    2904884 HIT:    2733453 MISS:     171431 MSHR_MERGE:          0
cpu0->cpu0_STLB LOAD         ACCESS:    2904884 HIT:    2733453 MISS:     171431 MSHR_MERGE:          0
cpu0->cpu0_STLB RFO          ACCESS:          0 HIT:          0 MISS:          0 MSHR_MERGE:          0
cpu0->cpu0_STLB PREFETCH     ACCESS:          0 HIT:          0 MISS:          0 MSHR_MERGE:          0
cpu0->cpu0_STLB WRITE        ACCESS:          0 HIT:          0 MISS:          0 MSHR_MERGE:          0
cpu0->cpu0_STLB TRANSLATION  ACCESS:          0 HIT:          0 MISS:          0 MSHR_MERGE:          0
cpu0->cpu0_STLB PREFETCH REQUESTED:          0 ISSUED:          0 USEFUL:          0 USELESS:          0
cpu0->cpu0_STLB AVERAGE MISS LATENCY: 60.5 cycles
cpu0->cpu0_L2C TOTAL        ACCESS:    5807333 HIT:    5297798 MISS:     509535 MSHR_MERGE:          0
cpu0->cpu0_L2C LOAD         ACCESS:    5080702 HIT:    4764665 MISS:     316037 MSHR_MERGE:          0
cpu0->cpu0_L2C RFO          ACCESS:     152396 HIT:      27833 MISS:     124563 MSHR_MERGE:          0
cpu0->cpu0_L2C PREFETCH     ACCESS:          0 HIT:          0 MISS:          0 MSHR_MERGE:          0
cpu0->cpu0_L2C WRITE        ACCESS:     241108 HIT:     241105 MISS:          3 MSHR_MERGE:          0
cpu0->cpu0_L2C TRANSLATION  ACCESS:     333127 HIT:     264195 MISS:      68932 MSHR_MERGE:          0
cpu0->cpu0_L2C PREFETCH REQUESTED:          0 ISSUED:          0 USEFUL:          0 USELESS:          0
cpu0->cpu0_L2C AVERAGE MISS LATENCY: 60.93 cycles
cpu0->cpu0_L1I TOTAL        ACCESS:   17937967 HIT:   17536036 MISS:     401931 MSHR_MERGE:      96716
cpu0->cpu0_L1I LOAD         ACCESS:   17937967 HIT:   17536036 MISS:     401931 MSHR_MERGE:      96716
cpu0->cpu0_L1I RFO          ACCESS:          0 HIT:          0 MISS:          0 MSHR_MERGE:          0
cpu0->cpu0_L1I PREFETCH     ACCESS:          0 HIT:          0 MISS:          0 MSHR_MERGE:          0
cpu0->cpu0_L1I WRITE        ACCESS:          0 HIT:          0 MISS:          0 MSHR_MERGE:          0
cpu0->cpu0_L1I TRANSLATION  ACCESS:          0 HIT:          0 MISS:          0 MSHR_MERGE:          0
cpu0->cpu0_L1I PREFETCH REQUESTED:          0 ISSUED:          0 USEFUL:          0 USELESS:          0
cpu0->cpu0_L1I AVERAGE MISS LATENCY: 12.58 cycles
cpu0->cpu0_L1D TOTAL        ACCESS:   28372611 HIT:   21239072 MISS:    7133539 MSHR_MERGE:    1872529
cpu0->cpu0_L1D LOAD         ACCESS:   19657039 HIT:   13431838 MISS:    6225201 MSHR_MERGE:    1449714
cpu0->cpu0_L1D RFO          ACCESS:          0 HIT:          0 MISS:          0 MSHR_MERGE:          0
cpu0->cpu0_L1D PREFETCH     ACCESS:          0 HIT:          0 MISS:          0 MSHR_MERGE:          0
cpu0->cpu0_L1D WRITE        ACCESS:    8372143 HIT:    7797383 MISS:     574760 MSHR_MERGE:     422364
cpu0->cpu0_L1D TRANSLATION  ACCESS:     343429 HIT:       9851 MISS:     333578 MSHR_MERGE:        451
cpu0->cpu0_L1D PREFETCH REQUESTED:          0 ISSUED:          0 USEFUL:          0 USELESS:          0
cpu0->cpu0_L1D AVERAGE MISS LATENCY: 18.03 cycles
cpu16777216->cpu0_L1D TOTAL        ACCESS:          1 HIT:          0 MISS:          1 MSHR_MERGE:          1
cpu16777216->cpu0_L1D LOAD         ACCESS:          0 HIT:          0 MISS:          0 MSHR_MERGE:          0
cpu16777216->cpu0_L1D RFO          ACCESS:          0 HIT:          0 MISS:          0 MSHR_MERGE:          0
cpu16777216->cpu0_L1D PREFETCH     ACCESS:          0 HIT:          0 MISS:          0 MSHR_MERGE:          0
cpu16777216->cpu0_L1D WRITE        ACCESS:          1 HIT:          0 MISS:          1 MSHR_MERGE:          1
cpu16777216->cpu0_L1D TRANSLATION  ACCESS:          0 HIT:          0 MISS:          0 MSHR_MERGE:          0
cpu16777216->cpu0_L1D PREFETCH REQUESTED:          0 ISSUED:          0 USEFUL:          0 USELESS:          0
cpu16777216->cpu0_L1D AVERAGE MISS LATENCY: - cycles
cpu0->cpu0_ITLB TOTAL        ACCESS:   16595575 HIT:   16508919 MISS:      86656 MSHR_MERGE:      37139
cpu0->cpu0_ITLB LOAD         ACCESS:   16595575 HIT:   16508919 MISS:      86656 MSHR_MERGE:      37139
cpu0->cpu0_ITLB RFO          ACCESS:          0 HIT:          0 MISS:          0 MSHR_MERGE:          0
cpu0->cpu0_ITLB PREFETCH     ACCESS:          0 HIT:          0 MISS:          0 MSHR_MERGE:          0
cpu0->cpu0_ITLB WRITE        ACCESS:          0 HIT:          0 MISS:          0 MSHR_MERGE:          0
cpu0->cpu0_ITLB TRANSLATION  ACCESS:          0 HIT:          0 MISS:          0 MSHR_MERGE:          0
cpu0->cpu0_ITLB PREFETCH REQUESTED:          0 ISSUED:          0 USEFUL:          0 USELESS:          0
cpu0->cpu0_ITLB AVERAGE MISS LATENCY: 9.19 cycles
cpu0->cpu0_DTLB TOTAL        ACCESS:   27150485 HIT:   22823143 MISS:    4327342 MSHR_MERGE:    1471975
cpu0->cpu0_DTLB LOAD         ACCESS:   27150485 HIT:   22823143 MISS:    4327342 MSHR_MERGE:    1471975
cpu0->cpu0_DTLB RFO          ACCESS:          0 HIT:          0 MISS:          0 MSHR_MERGE:          0
cpu0->cpu0_DTLB PREFETCH     ACCESS:          0 HIT:          0 MISS:          0 MSHR_MERGE:          0
cpu0->cpu0_DTLB WRITE        ACCESS:          0 HIT:          0 MISS:          0 MSHR_MERGE:          0
cpu0->cpu0_DTLB TRANSLATION  ACCESS:          0 HIT:          0 MISS:          0 MSHR_MERGE:          0
cpu0->cpu0_DTLB PREFETCH REQUESTED:          0 ISSUED:          0 USEFUL:          0 USELESS:          0
cpu0->cpu0_DTLB AVERAGE MISS LATENCY: 8.62 cycles
cpu16777216->cpu0_DTLB TOTAL        ACCESS:          1 HIT:          1 MISS:          0 MSHR_MERGE:          0
cpu16777216->cpu0_DTLB LOAD         ACCESS:          1 HIT:          1 MISS:          0 MSHR_MERGE:          0
cpu16777216->cpu0_DTLB RFO          ACCESS:          0 HIT:          0 MISS:          0 MSHR_MERGE:          0
cpu16777216->cpu0_DTLB PREFETCH     ACCESS:          0 HIT:          0 MISS:          0 MSHR_MERGE:          0
cpu16777216->cpu0_DTLB WRITE        ACCESS:          0 HIT:          0 MISS:          0 MSHR_MERGE:          0
cpu16777216->cpu0_DTLB TRANSLATION  ACCESS:          0 HIT:          0 MISS:          0 MSHR_MERGE:          0
cpu16777216->cpu0_DTLB PREFETCH REQUESTED:          0 ISSUED:          0 USEFUL:          0 USELESS:          0
cpu16777216->cpu0_DTLB AVERAGE MISS LATENCY: - cycles
cpu0->LLC TOTAL        ACCESS:     662600 HIT:     511797 MISS:     150803 MSHR_MERGE:          0
cpu0->LLC LOAD         ACCESS:     316037 HIT:     289708 MISS:      26329 MSHR_MERGE:          0
cpu0->LLC RFO          ACCESS:     124563 HIT:      19624 MISS:     104939 MSHR_MERGE:          0
cpu0->LLC PREFETCH     ACCESS:          0 HIT:          0 MISS:          0 MSHR_MERGE:          0
cpu0->LLC WRITE        ACCESS:     153068 HIT:     152211 MISS:        857 MSHR_MERGE:          0
cpu0->LLC TRANSLATION  ACCESS:      68932 HIT:      50254 MISS:      18678 MSHR_MERGE:          0
cpu0->LLC PREFETCH REQUESTED:          0 ISSUED:          0 USEFUL:          0 USELESS:          0
cpu0->LLC AVERAGE MISS LATENCY: 104 cycles

DRAM Statistics

Channel 0 RQ ROW_BUFFER_HIT:       4049
  ROW_BUFFER_MISS:     145895
  AVG DBUS CONGESTED CYCLE: 4.157
Channel 0 WQ ROW_BUFFER_HIT:       9573
  ROW_BUFFER_MISS:      96691
  FULL:          0
Channel 0 REFRESHES ISSUED:       9408
[2025-09-15 16:50:46] END   suite=spec trace=623.xalancbmk_s-700B (rc=0)
