[2025-09-15 18:52:23] START suite=spec trace=649.fotonik3d_s-7084B
CMD: ./bin/champsim -w 20000000 -i 100000000 /home/ho/prefetch_aware_insertion_ptr/traces/spec2k17/649.fotonik3d_s-7084B.champsimtrace.xz
[VMEM] WARNING: physical memory size is smaller than virtual memory size.

*** ChampSim Multicore Out-of-Order Simulator ***
Warmup Instructions: 20000000
Simulation Instructions: 100000000
Number of CPUs: 1
Page size: 4096

Off-chip DRAM Size: 16 GiB Channels: 1 Width: 64-bit Data Rate: 3205 MT/s
Heartbeat CPU 0 instructions: 10000004 cycles: 2845353 heartbeat IPC: 3.515 cumulative IPC: 3.515 (Simulation time: 00 hr 00 min 39 sec)
Warmup finished CPU 0 instructions: 20000002 cycles: 5622292 cumulative IPC: 3.557 (Simulation time: 00 hr 01 min 17 sec)
Warmup complete CPU 0 instructions: 20000002 cycles: 5622292 cumulative IPC: 3.557 (Simulation time: 00 hr 01 min 17 sec)
Heartbeat CPU 0 instructions: 20000007 cycles: 5622293 heartbeat IPC: 3.601 cumulative IPC: 5 (Simulation time: 00 hr 01 min 17 sec)
Heartbeat CPU 0 instructions: 30000010 cycles: 13693850 heartbeat IPC: 1.239 cumulative IPC: 1.239 (Simulation time: 00 hr 02 min 35 sec)
Heartbeat CPU 0 instructions: 40000011 cycles: 21734381 heartbeat IPC: 1.244 cumulative IPC: 1.241 (Simulation time: 00 hr 04 min 01 sec)
Heartbeat CPU 0 instructions: 50000011 cycles: 29751604 heartbeat IPC: 1.247 cumulative IPC: 1.243 (Simulation time: 00 hr 05 min 26 sec)
Heartbeat CPU 0 instructions: 60000015 cycles: 37726744 heartbeat IPC: 1.254 cumulative IPC: 1.246 (Simulation time: 00 hr 06 min 54 sec)
Heartbeat CPU 0 instructions: 70000017 cycles: 45702262 heartbeat IPC: 1.254 cumulative IPC: 1.248 (Simulation time: 00 hr 08 min 20 sec)
Heartbeat CPU 0 instructions: 80000021 cycles: 53822815 heartbeat IPC: 1.231 cumulative IPC: 1.245 (Simulation time: 00 hr 09 min 44 sec)
Heartbeat CPU 0 instructions: 90000025 cycles: 61870677 heartbeat IPC: 1.243 cumulative IPC: 1.244 (Simulation time: 00 hr 11 min 12 sec)
Heartbeat CPU 0 instructions: 100000029 cycles: 69861448 heartbeat IPC: 1.251 cumulative IPC: 1.245 (Simulation time: 00 hr 12 min 32 sec)
Heartbeat CPU 0 instructions: 110000032 cycles: 77809774 heartbeat IPC: 1.258 cumulative IPC: 1.247 (Simulation time: 00 hr 13 min 54 sec)
Simulation finished CPU 0 instructions: 100000004 cycles: 80137978 cumulative IPC: 1.248 (Simulation time: 00 hr 15 min 21 sec)
Simulation complete CPU 0 instructions: 100000004 cycles: 80137978 cumulative IPC: 1.248 (Simulation time: 00 hr 15 min 21 sec)

ChampSim completed all CPUs

=== Simulation ===
CPU 0 runs /home/ho/prefetch_aware_insertion_ptr/traces/spec2k17/649.fotonik3d_s-7084B.champsimtrace.xz

Region of Interest Statistics

CPU 0 cumulative IPC: 1.248 instructions: 100000004 cycles: 80137978
CPU 0 Branch Prediction Accuracy: 99.19% MPKI: 0.05619 Average ROB Occupancy at Mispredict: 351.8
Branch type MPKI
BRANCH_DIRECT_JUMP: 0
BRANCH_INDIRECT: 0
BRANCH_CONDITIONAL: 0.05619
BRANCH_DIRECT_CALL: 0
BRANCH_INDIRECT_CALL: 0
BRANCH_RETURN: 0


====Backend Stall Breakdown====
ROB_STALL: 57814995
LQ_STALL: 88
SQ_STALL: 1016


====ROB Stall Breakdown====

== Average ==
ADDR_TRANS: 364.9736
REPLAY_LOAD: 109.04526
NON_REPLAY_LOAD: 43.05514

== Total ==
ADDR_TRANS: 7675760
REPLAY_LOAD: 2524943
NON_REPLAY_LOAD: 47614292

== Counts ==
ADDR_TRANS: 21031
REPLAY_LOAD: 23155
NON_REPLAY_LOAD: 1105891

cpu0->cpu0_STLB TOTAL        ACCESS:      75049 HIT:      47746 MISS:      27303 MSHR_MERGE:          0
cpu0->cpu0_STLB LOAD         ACCESS:      75049 HIT:      47746 MISS:      27303 MSHR_MERGE:          0
cpu0->cpu0_STLB RFO          ACCESS:          0 HIT:          0 MISS:          0 MSHR_MERGE:          0
cpu0->cpu0_STLB PREFETCH     ACCESS:          0 HIT:          0 MISS:          0 MSHR_MERGE:          0
cpu0->cpu0_STLB WRITE        ACCESS:          0 HIT:          0 MISS:          0 MSHR_MERGE:          0
cpu0->cpu0_STLB TRANSLATION  ACCESS:          0 HIT:          0 MISS:          0 MSHR_MERGE:          0
cpu0->cpu0_STLB PREFETCH REQUESTED:          0 ISSUED:          0 USEFUL:          0 USELESS:          0
cpu0->cpu0_STLB AVERAGE MISS LATENCY: 501.4 cycles
cpu0->cpu0_L2C TOTAL        ACCESS:    2197340 HIT:     528901 MISS:    1668439 MSHR_MERGE:          0
cpu0->cpu0_L2C LOAD         ACCESS:    1637824 HIT:        470 MISS:    1637354 MSHR_MERGE:          0
cpu0->cpu0_L2C RFO          ACCESS:          0 HIT:          0 MISS:          0 MSHR_MERGE:          0
cpu0->cpu0_L2C PREFETCH     ACCESS:          0 HIT:          0 MISS:          0 MSHR_MERGE:          0
cpu0->cpu0_L2C WRITE        ACCESS:     519204 HIT:     519182 MISS:         22 MSHR_MERGE:          0
cpu0->cpu0_L2C TRANSLATION  ACCESS:      40312 HIT:       9249 MISS:      31063 MSHR_MERGE:          0
cpu0->cpu0_L2C PREFETCH REQUESTED:          0 ISSUED:          0 USEFUL:          0 USELESS:          0
cpu0->cpu0_L2C AVERAGE MISS LATENCY: 140.5 cycles
cpu0->cpu0_L1I TOTAL        ACCESS:   16780072 HIT:   16780072 MISS:          0 MSHR_MERGE:          0
cpu0->cpu0_L1I LOAD         ACCESS:   16780072 HIT:   16780072 MISS:          0 MSHR_MERGE:          0
cpu0->cpu0_L1I RFO          ACCESS:          0 HIT:          0 MISS:          0 MSHR_MERGE:          0
cpu0->cpu0_L1I PREFETCH     ACCESS:          0 HIT:          0 MISS:          0 MSHR_MERGE:          0
cpu0->cpu0_L1I WRITE        ACCESS:          0 HIT:          0 MISS:          0 MSHR_MERGE:          0
cpu0->cpu0_L1I TRANSLATION  ACCESS:          0 HIT:          0 MISS:          0 MSHR_MERGE:          0
cpu0->cpu0_L1I PREFETCH REQUESTED:          0 ISSUED:          0 USEFUL:          0 USELESS:          0
cpu0->cpu0_L1I AVERAGE MISS LATENCY: - cycles
cpu0->cpu0_L1D TOTAL        ACCESS:   27133581 HIT:   23785625 MISS:    3347956 MSHR_MERGE:    1669820
cpu0->cpu0_L1D LOAD         ACCESS:   22161709 HIT:   18854070 MISS:    3307639 MSHR_MERGE:    1669815
cpu0->cpu0_L1D RFO          ACCESS:          0 HIT:          0 MISS:          0 MSHR_MERGE:          0
cpu0->cpu0_L1D PREFETCH     ACCESS:          0 HIT:          0 MISS:          0 MSHR_MERGE:          0
cpu0->cpu0_L1D WRITE        ACCESS:    4917221 HIT:    4917221 MISS:          0 MSHR_MERGE:          0
cpu0->cpu0_L1D TRANSLATION  ACCESS:      54651 HIT:      14334 MISS:      40317 MSHR_MERGE:          5
cpu0->cpu0_L1D PREFETCH REQUESTED:          0 ISSUED:          0 USEFUL:          0 USELESS:          0
cpu0->cpu0_L1D AVERAGE MISS LATENCY: 152.5 cycles
cpu0->cpu0_ITLB TOTAL        ACCESS:   12878385 HIT:   12878385 MISS:          0 MSHR_MERGE:          0
cpu0->cpu0_ITLB LOAD         ACCESS:   12878385 HIT:   12878385 MISS:          0 MSHR_MERGE:          0
cpu0->cpu0_ITLB RFO          ACCESS:          0 HIT:          0 MISS:          0 MSHR_MERGE:          0
cpu0->cpu0_ITLB PREFETCH     ACCESS:          0 HIT:          0 MISS:          0 MSHR_MERGE:          0
cpu0->cpu0_ITLB WRITE        ACCESS:          0 HIT:          0 MISS:          0 MSHR_MERGE:          0
cpu0->cpu0_ITLB TRANSLATION  ACCESS:          0 HIT:          0 MISS:          0 MSHR_MERGE:          0
cpu0->cpu0_ITLB PREFETCH REQUESTED:          0 ISSUED:          0 USEFUL:          0 USELESS:          0
cpu0->cpu0_ITLB AVERAGE MISS LATENCY: - cycles
cpu0->cpu0_DTLB TOTAL        ACCESS:   26172508 HIT:   26057032 MISS:     115476 MSHR_MERGE:      40427
cpu0->cpu0_DTLB LOAD         ACCESS:   26172508 HIT:   26057032 MISS:     115476 MSHR_MERGE:      40427
cpu0->cpu0_DTLB RFO          ACCESS:          0 HIT:          0 MISS:          0 MSHR_MERGE:          0
cpu0->cpu0_DTLB PREFETCH     ACCESS:          0 HIT:          0 MISS:          0 MSHR_MERGE:          0
cpu0->cpu0_DTLB WRITE        ACCESS:          0 HIT:          0 MISS:          0 MSHR_MERGE:          0
cpu0->cpu0_DTLB TRANSLATION  ACCESS:          0 HIT:          0 MISS:          0 MSHR_MERGE:          0
cpu0->cpu0_DTLB PREFETCH REQUESTED:          0 ISSUED:          0 USEFUL:          0 USELESS:          0
cpu0->cpu0_DTLB AVERAGE MISS LATENCY: 187.8 cycles
cpu0->LLC TOTAL        ACCESS:    2187555 HIT:     519140 MISS:    1668415 MSHR_MERGE:          0
cpu0->LLC LOAD         ACCESS:    1637354 HIT:         21 MISS:    1637333 MSHR_MERGE:          0
cpu0->LLC RFO          ACCESS:          0 HIT:          0 MISS:          0 MSHR_MERGE:          0
cpu0->LLC PREFETCH     ACCESS:          0 HIT:          0 MISS:          0 MSHR_MERGE:          0
cpu0->LLC WRITE        ACCESS:     519138 HIT:     519116 MISS:         22 MSHR_MERGE:          0
cpu0->LLC TRANSLATION  ACCESS:      31063 HIT:          3 MISS:      31060 MSHR_MERGE:          0
cpu0->LLC PREFETCH REQUESTED:          0 ISSUED:          0 USEFUL:          0 USELESS:          0
cpu0->LLC AVERAGE MISS LATENCY: 109.9 cycles

DRAM Statistics

Channel 0 RQ ROW_BUFFER_HIT:         76
  ROW_BUFFER_MISS:    1668316
  AVG DBUS CONGESTED CYCLE: 4.355
Channel 0 WQ ROW_BUFFER_HIT:     172420
  ROW_BUFFER_MISS:     346891
  FULL:          0
Channel 0 REFRESHES ISSUED:       6678
[2025-09-15 19:07:44] END   suite=spec trace=649.fotonik3d_s-7084B (rc=0)
