[2025-09-15 16:38:38] START suite=spec trace=649.fotonik3d_s-10881B
CMD: ./bin/champsim -w 20000000 -i 100000000 /home/ho/prefetch_aware_insertion_ptr/traces/spec2k17/649.fotonik3d_s-10881B.champsimtrace.xz
[VMEM] WARNING: physical memory size is smaller than virtual memory size.

*** ChampSim Multicore Out-of-Order Simulator ***
Warmup Instructions: 20000000
Simulation Instructions: 100000000
Number of CPUs: 1
Page size: 4096

Off-chip DRAM Size: 16 GiB Channels: 1 Width: 64-bit Data Rate: 3205 MT/s
Heartbeat CPU 0 instructions: 10000003 cycles: 6290525 heartbeat IPC: 1.59 cumulative IPC: 1.59 (Simulation time: 00 hr 01 min 11 sec)
Warmup finished CPU 0 instructions: 20000000 cycles: 12580316 cumulative IPC: 1.59 (Simulation time: 00 hr 02 min 24 sec)
Warmup complete CPU 0 instructions: 20000000 cycles: 12580316 cumulative IPC: 1.59 (Simulation time: 00 hr 02 min 24 sec)
Heartbeat CPU 0 instructions: 20000005 cycles: 12580317 heartbeat IPC: 1.59 cumulative IPC: 5 (Simulation time: 00 hr 02 min 24 sec)
Heartbeat CPU 0 instructions: 30000005 cycles: 24551686 heartbeat IPC: 0.8353 cumulative IPC: 0.8353 (Simulation time: 00 hr 04 min 26 sec)
Heartbeat CPU 0 instructions: 40000008 cycles: 36527692 heartbeat IPC: 0.835 cumulative IPC: 0.8352 (Simulation time: 00 hr 06 min 23 sec)
Heartbeat CPU 0 instructions: 50000010 cycles: 48522535 heartbeat IPC: 0.8337 cumulative IPC: 0.8347 (Simulation time: 00 hr 08 min 27 sec)
Heartbeat CPU 0 instructions: 60000010 cycles: 60483864 heartbeat IPC: 0.836 cumulative IPC: 0.835 (Simulation time: 00 hr 10 min 29 sec)
Heartbeat CPU 0 instructions: 70000012 cycles: 72436759 heartbeat IPC: 0.8366 cumulative IPC: 0.8353 (Simulation time: 00 hr 12 min 27 sec)
Heartbeat CPU 0 instructions: 80000016 cycles: 84396397 heartbeat IPC: 0.8361 cumulative IPC: 0.8355 (Simulation time: 00 hr 14 min 26 sec)
Heartbeat CPU 0 instructions: 90000016 cycles: 96363193 heartbeat IPC: 0.8356 cumulative IPC: 0.8355 (Simulation time: 00 hr 16 min 26 sec)
Heartbeat CPU 0 instructions: 100000019 cycles: 108325656 heartbeat IPC: 0.8359 cumulative IPC: 0.8356 (Simulation time: 00 hr 18 min 28 sec)
Heartbeat CPU 0 instructions: 110000023 cycles: 120265936 heartbeat IPC: 0.8375 cumulative IPC: 0.8358 (Simulation time: 00 hr 20 min 27 sec)
Simulation finished CPU 0 instructions: 100000000 cycles: 119649416 cumulative IPC: 0.8358 (Simulation time: 00 hr 22 min 26 sec)
Simulation complete CPU 0 instructions: 100000000 cycles: 119649416 cumulative IPC: 0.8358 (Simulation time: 00 hr 22 min 26 sec)

ChampSim completed all CPUs

=== Simulation ===
CPU 0 runs /home/ho/prefetch_aware_insertion_ptr/traces/spec2k17/649.fotonik3d_s-10881B.champsimtrace.xz

Region of Interest Statistics

CPU 0 cumulative IPC: 0.8358 instructions: 100000000 cycles: 119649416
CPU 0 Branch Prediction Accuracy: 93.33% MPKI: 0.8021 Average ROB Occupancy at Mispredict: 350.5
Branch type MPKI
BRANCH_DIRECT_JUMP: 0
BRANCH_INDIRECT: 0
BRANCH_CONDITIONAL: 0.8021
BRANCH_DIRECT_CALL: 0
BRANCH_INDIRECT_CALL: 0
BRANCH_RETURN: 0


====Backend Stall Breakdown====
ROB_STALL: 84598510
LQ_STALL: 4180990
SQ_STALL: 0


====ROB Stall Breakdown====

== Average ==
ADDR_TRANS: 387.18283
REPLAY_LOAD: 96.445335
NON_REPLAY_LOAD: 14.345811

== Total ==
ADDR_TRANS: 31776097
REPLAY_LOAD: 11090635
NON_REPLAY_LOAD: 41731778

== Counts ==
ADDR_TRANS: 82070
REPLAY_LOAD: 114994
NON_REPLAY_LOAD: 2908987

cpu0->cpu0_STLB TOTAL        ACCESS:     457011 HIT:     117454 MISS:     339557 MSHR_MERGE:          0
cpu0->cpu0_STLB LOAD         ACCESS:     457011 HIT:     117454 MISS:     339557 MSHR_MERGE:          0
cpu0->cpu0_STLB RFO          ACCESS:          0 HIT:          0 MISS:          0 MSHR_MERGE:          0
cpu0->cpu0_STLB PREFETCH     ACCESS:          0 HIT:          0 MISS:          0 MSHR_MERGE:          0
cpu0->cpu0_STLB WRITE        ACCESS:          0 HIT:          0 MISS:          0 MSHR_MERGE:          0
cpu0->cpu0_STLB TRANSLATION  ACCESS:          0 HIT:          0 MISS:          0 MSHR_MERGE:          0
cpu0->cpu0_STLB PREFETCH REQUESTED:          0 ISSUED:          0 USEFUL:          0 USELESS:          0
cpu0->cpu0_STLB AVERAGE MISS LATENCY: 508 cycles
cpu0->cpu0_L2C TOTAL        ACCESS:    3286179 HIT:     977225 MISS:    2308954 MSHR_MERGE:          0
cpu0->cpu0_L2C LOAD         ACCESS:    1924019 HIT:          1 MISS:    1924018 MSHR_MERGE:          0
cpu0->cpu0_L2C RFO          ACCESS:          0 HIT:          0 MISS:          0 MSHR_MERGE:          0
cpu0->cpu0_L2C PREFETCH     ACCESS:          0 HIT:          0 MISS:          0 MSHR_MERGE:          0
cpu0->cpu0_L2C WRITE        ACCESS:     971512 HIT:     971512 MISS:          0 MSHR_MERGE:          0
cpu0->cpu0_L2C TRANSLATION  ACCESS:     390648 HIT:       5712 MISS:     384936 MSHR_MERGE:          0
cpu0->cpu0_L2C PREFETCH REQUESTED:          0 ISSUED:          0 USEFUL:          0 USELESS:          0
cpu0->cpu0_L2C AVERAGE MISS LATENCY: 114.4 cycles
cpu0->cpu0_L1I TOTAL        ACCESS:   19644113 HIT:   19644113 MISS:          0 MSHR_MERGE:          0
cpu0->cpu0_L1I LOAD         ACCESS:   19644113 HIT:   19644113 MISS:          0 MSHR_MERGE:          0
cpu0->cpu0_L1I RFO          ACCESS:          0 HIT:          0 MISS:          0 MSHR_MERGE:          0
cpu0->cpu0_L1I PREFETCH     ACCESS:          0 HIT:          0 MISS:          0 MSHR_MERGE:          0
cpu0->cpu0_L1I WRITE        ACCESS:          0 HIT:          0 MISS:          0 MSHR_MERGE:          0
cpu0->cpu0_L1I TRANSLATION  ACCESS:          0 HIT:          0 MISS:          0 MSHR_MERGE:          0
cpu0->cpu0_L1I PREFETCH REQUESTED:          0 ISSUED:          0 USEFUL:          0 USELESS:          0
cpu0->cpu0_L1I AVERAGE MISS LATENCY: - cycles
cpu0->cpu0_L1D TOTAL        ACCESS:   45876580 HIT:   41582546 MISS:    4294034 MSHR_MERGE:    1979367
cpu0->cpu0_L1D LOAD         ACCESS:   38785657 HIT:   34882284 MISS:    3903373 MSHR_MERGE:    1979354
cpu0->cpu0_L1D RFO          ACCESS:          0 HIT:          0 MISS:          0 MSHR_MERGE:          0
cpu0->cpu0_L1D PREFETCH     ACCESS:          0 HIT:          0 MISS:          0 MSHR_MERGE:          0
cpu0->cpu0_L1D WRITE        ACCESS:    6411306 HIT:    6411306 MISS:          0 MSHR_MERGE:          0
cpu0->cpu0_L1D TRANSLATION  ACCESS:     679617 HIT:     288956 MISS:     390661 MSHR_MERGE:         13
cpu0->cpu0_L1D PREFETCH REQUESTED:          0 ISSUED:          0 USEFUL:          0 USELESS:          0
cpu0->cpu0_L1D AVERAGE MISS LATENCY: 125.9 cycles
cpu0->cpu0_ITLB TOTAL        ACCESS:   15280212 HIT:   15280212 MISS:          0 MSHR_MERGE:          0
cpu0->cpu0_ITLB LOAD         ACCESS:   15280212 HIT:   15280212 MISS:          0 MSHR_MERGE:          0
cpu0->cpu0_ITLB RFO          ACCESS:          0 HIT:          0 MISS:          0 MSHR_MERGE:          0
cpu0->cpu0_ITLB PREFETCH     ACCESS:          0 HIT:          0 MISS:          0 MSHR_MERGE:          0
cpu0->cpu0_ITLB WRITE        ACCESS:          0 HIT:          0 MISS:          0 MSHR_MERGE:          0
cpu0->cpu0_ITLB TRANSLATION  ACCESS:          0 HIT:          0 MISS:          0 MSHR_MERGE:          0
cpu0->cpu0_ITLB PREFETCH REQUESTED:          0 ISSUED:          0 USEFUL:          0 USELESS:          0
cpu0->cpu0_ITLB AVERAGE MISS LATENCY: - cycles
cpu0->cpu0_DTLB TOTAL        ACCESS:   44197376 HIT:   43281820 MISS:     915556 MSHR_MERGE:     458545
cpu0->cpu0_DTLB LOAD         ACCESS:   44197376 HIT:   43281820 MISS:     915556 MSHR_MERGE:     458545
cpu0->cpu0_DTLB RFO          ACCESS:          0 HIT:          0 MISS:          0 MSHR_MERGE:          0
cpu0->cpu0_DTLB PREFETCH     ACCESS:          0 HIT:          0 MISS:          0 MSHR_MERGE:          0
cpu0->cpu0_DTLB WRITE        ACCESS:          0 HIT:          0 MISS:          0 MSHR_MERGE:          0
cpu0->cpu0_DTLB TRANSLATION  ACCESS:          0 HIT:          0 MISS:          0 MSHR_MERGE:          0
cpu0->cpu0_DTLB PREFETCH REQUESTED:          0 ISSUED:          0 USEFUL:          0 USELESS:          0
cpu0->cpu0_DTLB AVERAGE MISS LATENCY: 383.2 cycles
cpu0->LLC TOTAL        ACCESS:    3280371 HIT:    1322127 MISS:    1958244 MSHR_MERGE:          0
cpu0->LLC LOAD         ACCESS:    1924018 HIT:     279993 MISS:    1644025 MSHR_MERGE:          0
cpu0->LLC RFO          ACCESS:          0 HIT:          0 MISS:          0 MSHR_MERGE:          0
cpu0->LLC PREFETCH     ACCESS:          0 HIT:          0 MISS:          0 MSHR_MERGE:          0
cpu0->LLC WRITE        ACCESS:     971418 HIT:     971418 MISS:          0 MSHR_MERGE:          0
cpu0->LLC TRANSLATION  ACCESS:     384935 HIT:      70716 MISS:     314219 MSHR_MERGE:          0
cpu0->LLC PREFETCH REQUESTED:          0 ISSUED:          0 USEFUL:          0 USELESS:          0
cpu0->LLC AVERAGE MISS LATENCY: 102 cycles

DRAM Statistics

Channel 0 RQ ROW_BUFFER_HIT:     176855
  ROW_BUFFER_MISS:    1781387
  AVG DBUS CONGESTED CYCLE: 6.651
Channel 0 WQ ROW_BUFFER_HIT:     297841
  ROW_BUFFER_MISS:     673824
  FULL:          0
Channel 0 REFRESHES ISSUED:       9971
[2025-09-15 17:01:05] END   suite=spec trace=649.fotonik3d_s-10881B (rc=0)
