[2025-09-15 18:09:27] START suite=spec trace=649.fotonik3d_s-8225B
CMD: ./bin/champsim -w 20000000 -i 100000000 /home/ho/prefetch_aware_insertion_ptr/traces/spec2k17/649.fotonik3d_s-8225B.champsimtrace.xz
[VMEM] WARNING: physical memory size is smaller than virtual memory size.

*** ChampSim Multicore Out-of-Order Simulator ***
Warmup Instructions: 20000000
Simulation Instructions: 100000000
Number of CPUs: 1
Page size: 4096

Off-chip DRAM Size: 16 GiB Channels: 1 Width: 64-bit Data Rate: 3205 MT/s
Heartbeat CPU 0 instructions: 10000004 cycles: 2500837 heartbeat IPC: 3.999 cumulative IPC: 3.999 (Simulation time: 00 hr 00 min 36 sec)
Warmup finished CPU 0 instructions: 20000002 cycles: 4987159 cumulative IPC: 4.01 (Simulation time: 00 hr 01 min 14 sec)
Warmup complete CPU 0 instructions: 20000002 cycles: 4987159 cumulative IPC: 4.01 (Simulation time: 00 hr 01 min 14 sec)
Heartbeat CPU 0 instructions: 20000007 cycles: 4987160 heartbeat IPC: 4.022 cumulative IPC: 5 (Simulation time: 00 hr 01 min 14 sec)
Heartbeat CPU 0 instructions: 30000008 cycles: 13581939 heartbeat IPC: 1.163 cumulative IPC: 1.163 (Simulation time: 00 hr 02 min 42 sec)
Heartbeat CPU 0 instructions: 40000008 cycles: 22185456 heartbeat IPC: 1.162 cumulative IPC: 1.163 (Simulation time: 00 hr 04 min 04 sec)
Heartbeat CPU 0 instructions: 50000012 cycles: 30800086 heartbeat IPC: 1.161 cumulative IPC: 1.162 (Simulation time: 00 hr 05 min 27 sec)
Heartbeat CPU 0 instructions: 60000013 cycles: 39407136 heartbeat IPC: 1.162 cumulative IPC: 1.162 (Simulation time: 00 hr 06 min 50 sec)
Heartbeat CPU 0 instructions: 70000017 cycles: 48016496 heartbeat IPC: 1.162 cumulative IPC: 1.162 (Simulation time: 00 hr 08 min 19 sec)
Heartbeat CPU 0 instructions: 80000020 cycles: 56628515 heartbeat IPC: 1.161 cumulative IPC: 1.162 (Simulation time: 00 hr 09 min 49 sec)
Heartbeat CPU 0 instructions: 90000024 cycles: 65234940 heartbeat IPC: 1.162 cumulative IPC: 1.162 (Simulation time: 00 hr 11 min 18 sec)
Heartbeat CPU 0 instructions: 100000028 cycles: 73858167 heartbeat IPC: 1.16 cumulative IPC: 1.162 (Simulation time: 00 hr 12 min 49 sec)
Heartbeat CPU 0 instructions: 110000028 cycles: 82467889 heartbeat IPC: 1.161 cumulative IPC: 1.162 (Simulation time: 00 hr 14 min 14 sec)
Simulation finished CPU 0 instructions: 100000001 cycles: 86094000 cumulative IPC: 1.162 (Simulation time: 00 hr 15 min 41 sec)
Simulation complete CPU 0 instructions: 100000001 cycles: 86094000 cumulative IPC: 1.162 (Simulation time: 00 hr 15 min 41 sec)

ChampSim completed all CPUs

=== Simulation ===
CPU 0 runs /home/ho/prefetch_aware_insertion_ptr/traces/spec2k17/649.fotonik3d_s-8225B.champsimtrace.xz

Region of Interest Statistics

CPU 0 cumulative IPC: 1.162 instructions: 100000001 cycles: 86094000
CPU 0 Branch Prediction Accuracy: 99.98% MPKI: 0.00438 Average ROB Occupancy at Mispredict: 352
Branch type MPKI
BRANCH_DIRECT_JUMP: 0
BRANCH_INDIRECT: 0
BRANCH_CONDITIONAL: 0.00438
BRANCH_DIRECT_CALL: 0
BRANCH_INDIRECT_CALL: 0
BRANCH_RETURN: 0


====Backend Stall Breakdown====
ROB_STALL: 65149504
LQ_STALL: 0
SQ_STALL: 0


====ROB Stall Breakdown====

== Average ==
ADDR_TRANS: 493.363
REPLAY_LOAD: 105.63077
NON_REPLAY_LOAD: 45.76242

== Total ==
ADDR_TRANS: 1762786
REPLAY_LOAD: 377630
NON_REPLAY_LOAD: 63009088

== Counts ==
ADDR_TRANS: 3573
REPLAY_LOAD: 3575
NON_REPLAY_LOAD: 1376874

cpu0->cpu0_STLB TOTAL        ACCESS:      23487 HIT:       9767 MISS:      13720 MSHR_MERGE:          0
cpu0->cpu0_STLB LOAD         ACCESS:      23487 HIT:       9767 MISS:      13720 MSHR_MERGE:          0
cpu0->cpu0_STLB RFO          ACCESS:          0 HIT:          0 MISS:          0 MSHR_MERGE:          0
cpu0->cpu0_STLB PREFETCH     ACCESS:          0 HIT:          0 MISS:          0 MSHR_MERGE:          0
cpu0->cpu0_STLB WRITE        ACCESS:          0 HIT:          0 MISS:          0 MSHR_MERGE:          0
cpu0->cpu0_STLB TRANSLATION  ACCESS:          0 HIT:          0 MISS:          0 MSHR_MERGE:          0
cpu0->cpu0_STLB PREFETCH REQUESTED:          0 ISSUED:          0 USEFUL:          0 USELESS:          0
cpu0->cpu0_STLB AVERAGE MISS LATENCY: 564.8 cycles
cpu0->cpu0_L2C TOTAL        ACCESS:    2217965 HIT:    1179366 MISS:    1038599 MSHR_MERGE:          0
cpu0->cpu0_L2C LOAD         ACCESS:    1322058 HIT:     299130 MISS:    1022928 MSHR_MERGE:          0
cpu0->cpu0_L2C RFO          ACCESS:       1314 HIT:       1148 MISS:        166 MSHR_MERGE:          0
cpu0->cpu0_L2C PREFETCH     ACCESS:          0 HIT:          0 MISS:          0 MSHR_MERGE:          0
cpu0->cpu0_L2C WRITE        ACCESS:     878713 HIT:     878713 MISS:          0 MSHR_MERGE:          0
cpu0->cpu0_L2C TRANSLATION  ACCESS:      15880 HIT:        375 MISS:      15505 MSHR_MERGE:          0
cpu0->cpu0_L2C PREFETCH REQUESTED:          0 ISSUED:          0 USEFUL:          0 USELESS:          0
cpu0->cpu0_L2C AVERAGE MISS LATENCY: 113.7 cycles
cpu0->cpu0_L1I TOTAL        ACCESS:   15608668 HIT:   15608668 MISS:          0 MSHR_MERGE:          0
cpu0->cpu0_L1I LOAD         ACCESS:   15608668 HIT:   15608668 MISS:          0 MSHR_MERGE:          0
cpu0->cpu0_L1I RFO          ACCESS:          0 HIT:          0 MISS:          0 MSHR_MERGE:          0
cpu0->cpu0_L1I PREFETCH     ACCESS:          0 HIT:          0 MISS:          0 MSHR_MERGE:          0
cpu0->cpu0_L1I WRITE        ACCESS:          0 HIT:          0 MISS:          0 MSHR_MERGE:          0
cpu0->cpu0_L1I TRANSLATION  ACCESS:          0 HIT:          0 MISS:          0 MSHR_MERGE:          0
cpu0->cpu0_L1I PREFETCH REQUESTED:          0 ISSUED:          0 USEFUL:          0 USELESS:          0
cpu0->cpu0_L1I AVERAGE MISS LATENCY: - cycles
cpu0->cpu0_L1D TOTAL        ACCESS:   27920368 HIT:   23030145 MISS:    4890223 MSHR_MERGE:    3550971
cpu0->cpu0_L1D LOAD         ACCESS:   20872336 HIT:   16002557 MISS:    4869779 MSHR_MERGE:    3547721
cpu0->cpu0_L1D RFO          ACCESS:          0 HIT:          0 MISS:          0 MSHR_MERGE:          0
cpu0->cpu0_L1D PREFETCH     ACCESS:          0 HIT:          0 MISS:          0 MSHR_MERGE:          0
cpu0->cpu0_L1D WRITE        ACCESS:    7020548 HIT:    7015984 MISS:       4564 MSHR_MERGE:       3250
cpu0->cpu0_L1D TRANSLATION  ACCESS:      27484 HIT:      11604 MISS:      15880 MSHR_MERGE:          0
cpu0->cpu0_L1D PREFETCH REQUESTED:          0 ISSUED:          0 USEFUL:          0 USELESS:          0
cpu0->cpu0_L1D AVERAGE MISS LATENCY: 100.8 cycles
cpu0->cpu0_ITLB TOTAL        ACCESS:   13664866 HIT:   13664866 MISS:          0 MSHR_MERGE:          0
cpu0->cpu0_ITLB LOAD         ACCESS:   13664866 HIT:   13664866 MISS:          0 MSHR_MERGE:          0
cpu0->cpu0_ITLB RFO          ACCESS:          0 HIT:          0 MISS:          0 MSHR_MERGE:          0
cpu0->cpu0_ITLB PREFETCH     ACCESS:          0 HIT:          0 MISS:          0 MSHR_MERGE:          0
cpu0->cpu0_ITLB WRITE        ACCESS:          0 HIT:          0 MISS:          0 MSHR_MERGE:          0
cpu0->cpu0_ITLB TRANSLATION  ACCESS:          0 HIT:          0 MISS:          0 MSHR_MERGE:          0
cpu0->cpu0_ITLB PREFETCH REQUESTED:          0 ISSUED:          0 USEFUL:          0 USELESS:          0
cpu0->cpu0_ITLB AVERAGE MISS LATENCY: - cycles
cpu0->cpu0_DTLB TOTAL        ACCESS:   25442080 HIT:   25314296 MISS:     127784 MSHR_MERGE:     104297
cpu0->cpu0_DTLB LOAD         ACCESS:   25442080 HIT:   25314296 MISS:     127784 MSHR_MERGE:     104297
cpu0->cpu0_DTLB RFO          ACCESS:          0 HIT:          0 MISS:          0 MSHR_MERGE:          0
cpu0->cpu0_DTLB PREFETCH     ACCESS:          0 HIT:          0 MISS:          0 MSHR_MERGE:          0
cpu0->cpu0_DTLB WRITE        ACCESS:          0 HIT:          0 MISS:          0 MSHR_MERGE:          0
cpu0->cpu0_DTLB TRANSLATION  ACCESS:          0 HIT:          0 MISS:          0 MSHR_MERGE:          0
cpu0->cpu0_DTLB PREFETCH REQUESTED:          0 ISSUED:          0 USEFUL:          0 USELESS:          0
cpu0->cpu0_DTLB AVERAGE MISS LATENCY: 335.5 cycles
cpu0->LLC TOTAL        ACCESS:    1915153 HIT:    1009616 MISS:     905537 MSHR_MERGE:          0
cpu0->LLC LOAD         ACCESS:    1022928 HIT:     132957 MISS:     889971 MSHR_MERGE:          0
cpu0->LLC RFO          ACCESS:        166 HIT:        164 MISS:          2 MSHR_MERGE:          0
cpu0->LLC PREFETCH     ACCESS:          0 HIT:          0 MISS:          0 MSHR_MERGE:          0
cpu0->LLC WRITE        ACCESS:     876554 HIT:     876485 MISS:         69 MSHR_MERGE:          0
cpu0->LLC TRANSLATION  ACCESS:      15505 HIT:         10 MISS:      15495 MSHR_MERGE:          0
cpu0->LLC PREFETCH REQUESTED:          0 ISSUED:          0 USEFUL:          0 USELESS:          0
cpu0->LLC AVERAGE MISS LATENCY: 95.38 cycles

DRAM Statistics

Channel 0 RQ ROW_BUFFER_HIT:      20814
  ROW_BUFFER_MISS:     884651
  AVG DBUS CONGESTED CYCLE: 5.124
Channel 0 WQ ROW_BUFFER_HIT:     202981
  ROW_BUFFER_MISS:     673410
  FULL:          0
Channel 0 REFRESHES ISSUED:       7175
[2025-09-15 18:25:09] END   suite=spec trace=649.fotonik3d_s-8225B (rc=0)
