[2025-09-15 18:56:57] START suite=spec trace=654.roms_s-1070B
CMD: ./bin/champsim -w 20000000 -i 100000000 /home/ho/prefetch_aware_insertion_ptr/traces/spec2k17/654.roms_s-1070B.champsimtrace.xz
[VMEM] WARNING: physical memory size is smaller than virtual memory size.

*** ChampSim Multicore Out-of-Order Simulator ***
Warmup Instructions: 20000000
Simulation Instructions: 100000000
Number of CPUs: 1
Page size: 4096

Off-chip DRAM Size: 16 GiB Channels: 1 Width: 64-bit Data Rate: 3205 MT/s
Heartbeat CPU 0 instructions: 10000002 cycles: 3163120 heartbeat IPC: 3.161 cumulative IPC: 3.161 (Simulation time: 00 hr 00 min 42 sec)
Heartbeat CPU 0 instructions: 20000004 cycles: 5713066 heartbeat IPC: 3.922 cumulative IPC: 3.501 (Simulation time: 00 hr 01 min 22 sec)
Warmup finished CPU 0 instructions: 20000004 cycles: 5713066 cumulative IPC: 3.501 (Simulation time: 00 hr 01 min 22 sec)
Warmup complete CPU 0 instructions: 20000004 cycles: 5713066 cumulative IPC: 3.501 (Simulation time: 00 hr 01 min 22 sec)
Heartbeat CPU 0 instructions: 30000004 cycles: 14855701 heartbeat IPC: 1.094 cumulative IPC: 1.094 (Simulation time: 00 hr 03 min 00 sec)
Heartbeat CPU 0 instructions: 40000006 cycles: 24468379 heartbeat IPC: 1.04 cumulative IPC: 1.066 (Simulation time: 00 hr 04 min 45 sec)
Heartbeat CPU 0 instructions: 50000010 cycles: 33700092 heartbeat IPC: 1.083 cumulative IPC: 1.072 (Simulation time: 00 hr 06 min 09 sec)
Heartbeat CPU 0 instructions: 60000010 cycles: 44436835 heartbeat IPC: 0.9314 cumulative IPC: 1.033 (Simulation time: 00 hr 07 min 53 sec)
Heartbeat CPU 0 instructions: 70000012 cycles: 53290622 heartbeat IPC: 1.129 cumulative IPC: 1.051 (Simulation time: 00 hr 09 min 25 sec)
Heartbeat CPU 0 instructions: 80000015 cycles: 63552877 heartbeat IPC: 0.9744 cumulative IPC: 1.037 (Simulation time: 00 hr 11 min 04 sec)
Heartbeat CPU 0 instructions: 90000017 cycles: 73018537 heartbeat IPC: 1.056 cumulative IPC: 1.04 (Simulation time: 00 hr 12 min 40 sec)
Heartbeat CPU 0 instructions: 100000021 cycles: 82421238 heartbeat IPC: 1.064 cumulative IPC: 1.043 (Simulation time: 00 hr 14 min 06 sec)
Heartbeat CPU 0 instructions: 110000025 cycles: 93045777 heartbeat IPC: 0.9412 cumulative IPC: 1.031 (Simulation time: 00 hr 15 min 51 sec)
Simulation finished CPU 0 instructions: 100000002 cycles: 94670306 cumulative IPC: 1.056 (Simulation time: 00 hr 17 min 04 sec)
Simulation complete CPU 0 instructions: 100000002 cycles: 94670306 cumulative IPC: 1.056 (Simulation time: 00 hr 17 min 04 sec)

ChampSim completed all CPUs

=== Simulation ===
CPU 0 runs /home/ho/prefetch_aware_insertion_ptr/traces/spec2k17/654.roms_s-1070B.champsimtrace.xz

Region of Interest Statistics

CPU 0 cumulative IPC: 1.056 instructions: 100000002 cycles: 94670306
CPU 0 Branch Prediction Accuracy: 99.88% MPKI: 0.06231 Average ROB Occupancy at Mispredict: 351.5
Branch type MPKI
BRANCH_DIRECT_JUMP: 0
BRANCH_INDIRECT: 0
BRANCH_CONDITIONAL: 0.06231
BRANCH_DIRECT_CALL: 0
BRANCH_INDIRECT_CALL: 0
BRANCH_RETURN: 0


====Backend Stall Breakdown====
ROB_STALL: 68960651
LQ_STALL: 25290
SQ_STALL: 0


====ROB Stall Breakdown====

== Average ==
ADDR_TRANS: 296.2581
REPLAY_LOAD: 106.6705
NON_REPLAY_LOAD: 18.450596

== Total ==
ADDR_TRANS: 4603258
REPLAY_LOAD: 2449368
NON_REPLAY_LOAD: 61908025

== Counts ==
ADDR_TRANS: 15538
REPLAY_LOAD: 22962
NON_REPLAY_LOAD: 3355340

cpu0->cpu0_STLB TOTAL        ACCESS:      48369 HIT:         47 MISS:      48322 MSHR_MERGE:          0
cpu0->cpu0_STLB LOAD         ACCESS:      48369 HIT:         47 MISS:      48322 MSHR_MERGE:          0
cpu0->cpu0_STLB RFO          ACCESS:          0 HIT:          0 MISS:          0 MSHR_MERGE:          0
cpu0->cpu0_STLB PREFETCH     ACCESS:          0 HIT:          0 MISS:          0 MSHR_MERGE:          0
cpu0->cpu0_STLB WRITE        ACCESS:          0 HIT:          0 MISS:          0 MSHR_MERGE:          0
cpu0->cpu0_STLB TRANSLATION  ACCESS:          0 HIT:          0 MISS:          0 MSHR_MERGE:          0
cpu0->cpu0_STLB PREFETCH REQUESTED:          0 ISSUED:          0 USEFUL:          0 USELESS:          0
cpu0->cpu0_STLB AVERAGE MISS LATENCY: 397.6 cycles
cpu0->cpu0_L2C TOTAL        ACCESS:    2891990 HIT:     668679 MISS:    2223311 MSHR_MERGE:          0
cpu0->cpu0_L2C LOAD         ACCESS:    1496859 HIT:        219 MISS:    1496640 MSHR_MERGE:          0
cpu0->cpu0_L2C RFO          ACCESS:     668369 HIT:          0 MISS:     668369 MSHR_MERGE:          0
cpu0->cpu0_L2C PREFETCH     ACCESS:          0 HIT:          0 MISS:          0 MSHR_MERGE:          0
cpu0->cpu0_L2C WRITE        ACCESS:     668443 HIT:     668388 MISS:         55 MSHR_MERGE:          0
cpu0->cpu0_L2C TRANSLATION  ACCESS:      58319 HIT:         72 MISS:      58247 MSHR_MERGE:          0
cpu0->cpu0_L2C PREFETCH REQUESTED:          0 ISSUED:          0 USEFUL:          0 USELESS:          0
cpu0->cpu0_L2C AVERAGE MISS LATENCY: 157.3 cycles
cpu0->cpu0_L1I TOTAL        ACCESS:   19282670 HIT:   19282670 MISS:          0 MSHR_MERGE:          0
cpu0->cpu0_L1I LOAD         ACCESS:   19282670 HIT:   19282670 MISS:          0 MSHR_MERGE:          0
cpu0->cpu0_L1I RFO          ACCESS:          0 HIT:          0 MISS:          0 MSHR_MERGE:          0
cpu0->cpu0_L1I PREFETCH     ACCESS:          0 HIT:          0 MISS:          0 MSHR_MERGE:          0
cpu0->cpu0_L1I WRITE        ACCESS:          0 HIT:          0 MISS:          0 MSHR_MERGE:          0
cpu0->cpu0_L1I TRANSLATION  ACCESS:          0 HIT:          0 MISS:          0 MSHR_MERGE:          0
cpu0->cpu0_L1I PREFETCH REQUESTED:          0 ISSUED:          0 USEFUL:          0 USELESS:          0
cpu0->cpu0_L1I AVERAGE MISS LATENCY: - cycles
cpu0->cpu0_L1D TOTAL        ACCESS:   31067222 HIT:   19408780 MISS:   11658442 MSHR_MERGE:    9434895
cpu0->cpu0_L1D LOAD         ACCESS:   25654201 HIT:   18435935 MISS:    7218266 MSHR_MERGE:    5721407
cpu0->cpu0_L1D RFO          ACCESS:          0 HIT:          0 MISS:          0 MSHR_MERGE:          0
cpu0->cpu0_L1D PREFETCH     ACCESS:          0 HIT:          0 MISS:          0 MSHR_MERGE:          0
cpu0->cpu0_L1D WRITE        ACCESS:    5316243 HIT:     934506 MISS:    4381737 MSHR_MERGE:    3713368
cpu0->cpu0_L1D TRANSLATION  ACCESS:      96778 HIT:      38339 MISS:      58439 MSHR_MERGE:        120
cpu0->cpu0_L1D PREFETCH REQUESTED:          0 ISSUED:          0 USEFUL:          0 USELESS:          0
cpu0->cpu0_L1D AVERAGE MISS LATENCY: 170.2 cycles
cpu0->cpu0_ITLB TOTAL        ACCESS:   15497779 HIT:   15497779 MISS:          0 MSHR_MERGE:          0
cpu0->cpu0_ITLB LOAD         ACCESS:   15497779 HIT:   15497779 MISS:          0 MSHR_MERGE:          0
cpu0->cpu0_ITLB RFO          ACCESS:          0 HIT:          0 MISS:          0 MSHR_MERGE:          0
cpu0->cpu0_ITLB PREFETCH     ACCESS:          0 HIT:          0 MISS:          0 MSHR_MERGE:          0
cpu0->cpu0_ITLB WRITE        ACCESS:          0 HIT:          0 MISS:          0 MSHR_MERGE:          0
cpu0->cpu0_ITLB TRANSLATION  ACCESS:          0 HIT:          0 MISS:          0 MSHR_MERGE:          0
cpu0->cpu0_ITLB PREFETCH REQUESTED:          0 ISSUED:          0 USEFUL:          0 USELESS:          0
cpu0->cpu0_ITLB AVERAGE MISS LATENCY: - cycles
cpu0->cpu0_DTLB TOTAL        ACCESS:   30322279 HIT:   29958190 MISS:     364089 MSHR_MERGE:     315720
cpu0->cpu0_DTLB LOAD         ACCESS:   30322279 HIT:   29958190 MISS:     364089 MSHR_MERGE:     315720
cpu0->cpu0_DTLB RFO          ACCESS:          0 HIT:          0 MISS:          0 MSHR_MERGE:          0
cpu0->cpu0_DTLB PREFETCH     ACCESS:          0 HIT:          0 MISS:          0 MSHR_MERGE:          0
cpu0->cpu0_DTLB WRITE        ACCESS:          0 HIT:          0 MISS:          0 MSHR_MERGE:          0
cpu0->cpu0_DTLB TRANSLATION  ACCESS:          0 HIT:          0 MISS:          0 MSHR_MERGE:          0
cpu0->cpu0_DTLB PREFETCH REQUESTED:          0 ISSUED:          0 USEFUL:          0 USELESS:          0
cpu0->cpu0_DTLB AVERAGE MISS LATENCY: 403.2 cycles
cpu0->LLC TOTAL        ACCESS:    2891566 HIT:     668387 MISS:    2223179 MSHR_MERGE:          0
cpu0->LLC LOAD         ACCESS:    1496640 HIT:        103 MISS:    1496537 MSHR_MERGE:          0
cpu0->LLC RFO          ACCESS:     668369 HIT:          0 MISS:     668369 MSHR_MERGE:          0
cpu0->LLC PREFETCH     ACCESS:          0 HIT:          0 MISS:          0 MSHR_MERGE:          0
cpu0->LLC WRITE        ACCESS:     668310 HIT:     668265 MISS:         45 MSHR_MERGE:          0
cpu0->LLC TRANSLATION  ACCESS:      58247 HIT:         19 MISS:      58228 MSHR_MERGE:          0
cpu0->LLC PREFETCH REQUESTED:          0 ISSUED:          0 USEFUL:          0 USELESS:          0
cpu0->LLC AVERAGE MISS LATENCY: 126.7 cycles

DRAM Statistics

Channel 0 RQ ROW_BUFFER_HIT:       3169
  ROW_BUFFER_MISS:    2219965
  AVG DBUS CONGESTED CYCLE: 3.881
Channel 0 WQ ROW_BUFFER_HIT:     122155
  ROW_BUFFER_MISS:     546226
  FULL:          0
Channel 0 REFRESHES ISSUED:       7889
[2025-09-15 19:14:01] END   suite=spec trace=654.roms_s-1070B (rc=0)
