[2025-09-15 22:31:04] START suite=qualcomm_srv trace=srv282_ap
CMD: ./bin/champsim -w 20000000 -i 100000000 /home/ho/itp_asplos25_AE/traces/qualcomm_srv/srv282_ap.champsimtrace.xz
[VMEM] WARNING: physical memory size is smaller than virtual memory size.

*** ChampSim Multicore Out-of-Order Simulator ***
Warmup Instructions: 20000000
Simulation Instructions: 100000000
Number of CPUs: 1
Page size: 4096

Off-chip DRAM Size: 16 GiB Channels: 1 Width: 64-bit Data Rate: 3205 MT/s
[BTB] WARNING: target of return is a lower address than the corresponding call. This is usually a problem with your trace.
[BTB] WARNING: target of return is a lower address than the corresponding call. This is usually a problem with your trace.
[BTB] WARNING: target of return is a lower address than the corresponding call. This is usually a problem with your trace.
[BTB] WARNING: target of return is a lower address than the corresponding call. This is usually a problem with your trace.
[BTB] WARNING: target of return is a lower address than the corresponding call. This is usually a problem with your trace.
[BTB] WARNING: target of return is a lower address than the corresponding call. This is usually a problem with your trace.
[BTB] WARNING: target of return is a lower address than the corresponding call. This is usually a problem with your trace.
[BTB] WARNING: target of return is a lower address than the corresponding call. This is usually a problem with your trace.
[BTB] WARNING: target of return is a lower address than the corresponding call. This is usually a problem with your trace.
[BTB] WARNING: target of return is a lower address than the corresponding call. This is usually a problem with your trace.
Heartbeat CPU 0 instructions: 10000001 cycles: 2612413 heartbeat IPC: 3.828 cumulative IPC: 3.828 (Simulation time: 00 hr 00 min 39 sec)
Warmup finished CPU 0 instructions: 20000000 cycles: 5059136 cumulative IPC: 3.953 (Simulation time: 00 hr 01 min 14 sec)
Warmup complete CPU 0 instructions: 20000000 cycles: 5059136 cumulative IPC: 3.953 (Simulation time: 00 hr 01 min 14 sec)
Heartbeat CPU 0 instructions: 20000005 cycles: 5059137 heartbeat IPC: 4.087 cumulative IPC: 5 (Simulation time: 00 hr 01 min 14 sec)
Heartbeat CPU 0 instructions: 30000005 cycles: 14079137 heartbeat IPC: 1.109 cumulative IPC: 1.109 (Simulation time: 00 hr 02 min 26 sec)
Heartbeat CPU 0 instructions: 40000008 cycles: 23197120 heartbeat IPC: 1.097 cumulative IPC: 1.103 (Simulation time: 00 hr 03 min 30 sec)
Heartbeat CPU 0 instructions: 50000008 cycles: 32204695 heartbeat IPC: 1.11 cumulative IPC: 1.105 (Simulation time: 00 hr 04 min 32 sec)
Heartbeat CPU 0 instructions: 60000008 cycles: 41195781 heartbeat IPC: 1.112 cumulative IPC: 1.107 (Simulation time: 00 hr 05 min 36 sec)
Heartbeat CPU 0 instructions: 70000009 cycles: 50288294 heartbeat IPC: 1.1 cumulative IPC: 1.105 (Simulation time: 00 hr 06 min 47 sec)
Heartbeat CPU 0 instructions: 80000011 cycles: 59281142 heartbeat IPC: 1.112 cumulative IPC: 1.107 (Simulation time: 00 hr 07 min 51 sec)
Heartbeat CPU 0 instructions: 90000012 cycles: 68340958 heartbeat IPC: 1.104 cumulative IPC: 1.106 (Simulation time: 00 hr 08 min 53 sec)
Heartbeat CPU 0 instructions: 100000013 cycles: 77314586 heartbeat IPC: 1.114 cumulative IPC: 1.107 (Simulation time: 00 hr 10 min 09 sec)
*** Reached end of trace: (0, "/home/ho/itp_asplos25_AE/traces/qualcomm_srv/srv282_ap.champsimtrace.xz")
Heartbeat CPU 0 instructions: 110000013 cycles: 86283468 heartbeat IPC: 1.115 cumulative IPC: 1.108 (Simulation time: 00 hr 11 min 24 sec)
Simulation finished CPU 0 instructions: 100000003 cycles: 90239755 cumulative IPC: 1.108 (Simulation time: 00 hr 12 min 31 sec)
Simulation complete CPU 0 instructions: 100000003 cycles: 90239755 cumulative IPC: 1.108 (Simulation time: 00 hr 12 min 31 sec)

ChampSim completed all CPUs

=== Simulation ===
CPU 0 runs /home/ho/itp_asplos25_AE/traces/qualcomm_srv/srv282_ap.champsimtrace.xz

Region of Interest Statistics

CPU 0 cumulative IPC: 1.108 instructions: 100000003 cycles: 90239755
CPU 0 Branch Prediction Accuracy: 90.92% MPKI: 15.96 Average ROB Occupancy at Mispredict: 26.22
Branch type MPKI
BRANCH_DIRECT_JUMP: 0.3804
BRANCH_INDIRECT: 0.4137
BRANCH_CONDITIONAL: 13.03
BRANCH_DIRECT_CALL: 0.9214
BRANCH_INDIRECT_CALL: 0.5931
BRANCH_RETURN: 0.6196


====Backend Stall Breakdown====
ROB_STALL: 42760
LQ_STALL: 0
SQ_STALL: 530037


====ROB Stall Breakdown====

== Average ==
ADDR_TRANS: 63.17647
REPLAY_LOAD: 45.630436
NON_REPLAY_LOAD: 12.782277

== Total ==
ADDR_TRANS: 2148
REPLAY_LOAD: 2099
NON_REPLAY_LOAD: 38513

== Counts ==
ADDR_TRANS: 34
REPLAY_LOAD: 46
NON_REPLAY_LOAD: 3013

cpu0->cpu0_STLB TOTAL        ACCESS:    1868743 HIT:    1864115 MISS:       4628 MSHR_MERGE:          0
cpu0->cpu0_STLB LOAD         ACCESS:    1868743 HIT:    1864115 MISS:       4628 MSHR_MERGE:          0
cpu0->cpu0_STLB RFO          ACCESS:          0 HIT:          0 MISS:          0 MSHR_MERGE:          0
cpu0->cpu0_STLB PREFETCH     ACCESS:          0 HIT:          0 MISS:          0 MSHR_MERGE:          0
cpu0->cpu0_STLB WRITE        ACCESS:          0 HIT:          0 MISS:          0 MSHR_MERGE:          0
cpu0->cpu0_STLB TRANSLATION  ACCESS:          0 HIT:          0 MISS:          0 MSHR_MERGE:          0
cpu0->cpu0_STLB PREFETCH REQUESTED:          0 ISSUED:          0 USEFUL:          0 USELESS:          0
cpu0->cpu0_STLB AVERAGE MISS LATENCY: 212.6 cycles
cpu0->cpu0_L2C TOTAL        ACCESS:    8276479 HIT:    7332305 MISS:     944174 MSHR_MERGE:          0
cpu0->cpu0_L2C LOAD         ACCESS:    6739386 HIT:    5932710 MISS:     806676 MSHR_MERGE:          0
cpu0->cpu0_L2C RFO          ACCESS:     545713 HIT:     428408 MISS:     117305 MSHR_MERGE:          0
cpu0->cpu0_L2C PREFETCH     ACCESS:          0 HIT:          0 MISS:          0 MSHR_MERGE:          0
cpu0->cpu0_L2C WRITE        ACCESS:     983136 HIT:     970112 MISS:      13024 MSHR_MERGE:          0
cpu0->cpu0_L2C TRANSLATION  ACCESS:       8244 HIT:       1075 MISS:       7169 MSHR_MERGE:          0
cpu0->cpu0_L2C PREFETCH REQUESTED:          0 ISSUED:          0 USEFUL:          0 USELESS:          0
cpu0->cpu0_L2C AVERAGE MISS LATENCY: 34.61 cycles
cpu0->cpu0_L1I TOTAL        ACCESS:   15059864 HIT:    8049454 MISS:    7010410 MSHR_MERGE:    1657663
cpu0->cpu0_L1I LOAD         ACCESS:   15059864 HIT:    8049454 MISS:    7010410 MSHR_MERGE:    1657663
cpu0->cpu0_L1I RFO          ACCESS:          0 HIT:          0 MISS:          0 MSHR_MERGE:          0
cpu0->cpu0_L1I PREFETCH     ACCESS:          0 HIT:          0 MISS:          0 MSHR_MERGE:          0
cpu0->cpu0_L1I WRITE        ACCESS:          0 HIT:          0 MISS:          0 MSHR_MERGE:          0
cpu0->cpu0_L1I TRANSLATION  ACCESS:          0 HIT:          0 MISS:          0 MSHR_MERGE:          0
cpu0->cpu0_L1I PREFETCH REQUESTED:          0 ISSUED:          0 USEFUL:          0 USELESS:          0
cpu0->cpu0_L1I AVERAGE MISS LATENCY: 14.59 cycles
cpu0->cpu0_L1D TOTAL        ACCESS:   30556800 HIT:   27167861 MISS:    3388939 MSHR_MERGE:    1448337
cpu0->cpu0_L1D LOAD         ACCESS:   17163481 HIT:   15416867 MISS:    1746614 MSHR_MERGE:     359970
cpu0->cpu0_L1D RFO          ACCESS:          0 HIT:          0 MISS:          0 MSHR_MERGE:          0
cpu0->cpu0_L1D PREFETCH     ACCESS:          0 HIT:          0 MISS:          0 MSHR_MERGE:          0
cpu0->cpu0_L1D WRITE        ACCESS:   13383929 HIT:   11749961 MISS:    1633968 MSHR_MERGE:    1088254
cpu0->cpu0_L1D TRANSLATION  ACCESS:       9390 HIT:       1033 MISS:       8357 MSHR_MERGE:        113
cpu0->cpu0_L1D PREFETCH REQUESTED:          0 ISSUED:          0 USEFUL:          0 USELESS:          0
cpu0->cpu0_L1D AVERAGE MISS LATENCY: 20.3 cycles
cpu0->cpu0_ITLB TOTAL        ACCESS:   12500792 HIT:   10578862 MISS:    1921930 MSHR_MERGE:     963963
cpu0->cpu0_ITLB LOAD         ACCESS:   12500792 HIT:   10578862 MISS:    1921930 MSHR_MERGE:     963963
cpu0->cpu0_ITLB RFO          ACCESS:          0 HIT:          0 MISS:          0 MSHR_MERGE:          0
cpu0->cpu0_ITLB PREFETCH     ACCESS:          0 HIT:          0 MISS:          0 MSHR_MERGE:          0
cpu0->cpu0_ITLB WRITE        ACCESS:          0 HIT:          0 MISS:          0 MSHR_MERGE:          0
cpu0->cpu0_ITLB TRANSLATION  ACCESS:          0 HIT:          0 MISS:          0 MSHR_MERGE:          0
cpu0->cpu0_ITLB PREFETCH REQUESTED:          0 ISSUED:          0 USEFUL:          0 USELESS:          0
cpu0->cpu0_ITLB AVERAGE MISS LATENCY: 5.091 cycles
cpu0->cpu0_DTLB TOTAL        ACCESS:   28958493 HIT:   27727762 MISS:    1230731 MSHR_MERGE:     319955
cpu0->cpu0_DTLB LOAD         ACCESS:   28958493 HIT:   27727762 MISS:    1230731 MSHR_MERGE:     319955
cpu0->cpu0_DTLB RFO          ACCESS:          0 HIT:          0 MISS:          0 MSHR_MERGE:          0
cpu0->cpu0_DTLB PREFETCH     ACCESS:          0 HIT:          0 MISS:          0 MSHR_MERGE:          0
cpu0->cpu0_DTLB WRITE        ACCESS:          0 HIT:          0 MISS:          0 MSHR_MERGE:          0
cpu0->cpu0_DTLB TRANSLATION  ACCESS:          0 HIT:          0 MISS:          0 MSHR_MERGE:          0
cpu0->cpu0_DTLB PREFETCH REQUESTED:          0 ISSUED:          0 USEFUL:          0 USELESS:          0
cpu0->cpu0_DTLB AVERAGE MISS LATENCY: 6.007 cycles
cpu0->LLC TOTAL        ACCESS:    1120426 HIT:    1075801 MISS:      44625 MSHR_MERGE:          0
cpu0->LLC LOAD         ACCESS:     806676 HIT:     789591 MISS:      17085 MSHR_MERGE:          0
cpu0->LLC RFO          ACCESS:     117305 HIT:      93586 MISS:      23719 MSHR_MERGE:          0
cpu0->LLC PREFETCH     ACCESS:          0 HIT:          0 MISS:          0 MSHR_MERGE:          0
cpu0->LLC WRITE        ACCESS:     189276 HIT:     189142 MISS:        134 MSHR_MERGE:          0
cpu0->LLC TRANSLATION  ACCESS:       7169 HIT:       3482 MISS:       3687 MSHR_MERGE:          0
cpu0->LLC PREFETCH REQUESTED:          0 ISSUED:          0 USEFUL:          0 USELESS:          0
cpu0->LLC AVERAGE MISS LATENCY: 105.9 cycles

DRAM Statistics

Channel 0 RQ ROW_BUFFER_HIT:       2552
  ROW_BUFFER_MISS:      41939
  AVG DBUS CONGESTED CYCLE: 3.336
Channel 0 WQ ROW_BUFFER_HIT:        556
  ROW_BUFFER_MISS:      16823
  FULL:          0
Channel 0 REFRESHES ISSUED:       7520
[2025-09-15 22:43:36] END   suite=qualcomm_srv trace=srv282_ap (rc=0)
