[2025-09-15 22:24:27] START suite=qualcomm_srv trace=srv283_ap
CMD: ./bin/champsim -w 20000000 -i 100000000 /home/ho/itp_asplos25_AE/traces/qualcomm_srv/srv283_ap.champsimtrace.xz
[VMEM] WARNING: physical memory size is smaller than virtual memory size.

*** ChampSim Multicore Out-of-Order Simulator ***
Warmup Instructions: 20000000
Simulation Instructions: 100000000
Number of CPUs: 1
Page size: 4096

Off-chip DRAM Size: 16 GiB Channels: 1 Width: 64-bit Data Rate: 3205 MT/s
[BTB] WARNING: target of return is a lower address than the corresponding call. This is usually a problem with your trace.
[BTB] WARNING: target of return is a lower address than the corresponding call. This is usually a problem with your trace.
[BTB] WARNING: target of return is a lower address than the corresponding call. This is usually a problem with your trace.
[BTB] WARNING: target of return is a lower address than the corresponding call. This is usually a problem with your trace.
[BTB] WARNING: target of return is a lower address than the corresponding call. This is usually a problem with your trace.
[BTB] WARNING: target of return is a lower address than the corresponding call. This is usually a problem with your trace.
[BTB] WARNING: target of return is a lower address than the corresponding call. This is usually a problem with your trace.
[BTB] WARNING: target of return is a lower address than the corresponding call. This is usually a problem with your trace.
[BTB] WARNING: target of return is a lower address than the corresponding call. This is usually a problem with your trace.
[BTB] WARNING: target of return is a lower address than the corresponding call. This is usually a problem with your trace.
Heartbeat CPU 0 instructions: 10000000 cycles: 2694441 heartbeat IPC: 3.711 cumulative IPC: 3.711 (Simulation time: 00 hr 00 min 38 sec)
Heartbeat CPU 0 instructions: 20000001 cycles: 5184324 heartbeat IPC: 4.016 cumulative IPC: 3.858 (Simulation time: 00 hr 01 min 15 sec)
Warmup finished CPU 0 instructions: 20000001 cycles: 5184324 cumulative IPC: 3.858 (Simulation time: 00 hr 01 min 15 sec)
Warmup complete CPU 0 instructions: 20000001 cycles: 5184324 cumulative IPC: 3.858 (Simulation time: 00 hr 01 min 15 sec)
Heartbeat CPU 0 instructions: 30000004 cycles: 15141236 heartbeat IPC: 1.004 cumulative IPC: 1.004 (Simulation time: 00 hr 02 min 33 sec)
Heartbeat CPU 0 instructions: 40000004 cycles: 24548018 heartbeat IPC: 1.063 cumulative IPC: 1.033 (Simulation time: 00 hr 03 min 51 sec)
Heartbeat CPU 0 instructions: 50000008 cycles: 34967084 heartbeat IPC: 0.9598 cumulative IPC: 1.007 (Simulation time: 00 hr 05 min 16 sec)
Heartbeat CPU 0 instructions: 60000008 cycles: 44558336 heartbeat IPC: 1.043 cumulative IPC: 1.016 (Simulation time: 00 hr 06 min 32 sec)
Heartbeat CPU 0 instructions: 70000012 cycles: 54395796 heartbeat IPC: 1.017 cumulative IPC: 1.016 (Simulation time: 00 hr 07 min 51 sec)
Heartbeat CPU 0 instructions: 80000013 cycles: 64026966 heartbeat IPC: 1.038 cumulative IPC: 1.02 (Simulation time: 00 hr 09 min 07 sec)
Heartbeat CPU 0 instructions: 90000015 cycles: 73761271 heartbeat IPC: 1.027 cumulative IPC: 1.021 (Simulation time: 00 hr 10 min 21 sec)
Heartbeat CPU 0 instructions: 100000018 cycles: 83961642 heartbeat IPC: 0.9804 cumulative IPC: 1.016 (Simulation time: 00 hr 11 min 43 sec)
*** Reached end of trace: (0, "/home/ho/itp_asplos25_AE/traces/qualcomm_srv/srv283_ap.champsimtrace.xz")
Heartbeat CPU 0 instructions: 110000020 cycles: 93460146 heartbeat IPC: 1.053 cumulative IPC: 1.02 (Simulation time: 00 hr 13 min 03 sec)
Simulation finished CPU 0 instructions: 100000002 cycles: 98193853 cumulative IPC: 1.018 (Simulation time: 00 hr 14 min 23 sec)
Simulation complete CPU 0 instructions: 100000002 cycles: 98193853 cumulative IPC: 1.018 (Simulation time: 00 hr 14 min 23 sec)

ChampSim completed all CPUs

=== Simulation ===
CPU 0 runs /home/ho/itp_asplos25_AE/traces/qualcomm_srv/srv283_ap.champsimtrace.xz

Region of Interest Statistics

CPU 0 cumulative IPC: 1.018 instructions: 100000002 cycles: 98193853
CPU 0 Branch Prediction Accuracy: 94.32% MPKI: 10.21 Average ROB Occupancy at Mispredict: 41.8
Branch type MPKI
BRANCH_DIRECT_JUMP: 0.1258
BRANCH_INDIRECT: 0.1758
BRANCH_CONDITIONAL: 9.355
BRANCH_DIRECT_CALL: 0.2314
BRANCH_INDIRECT_CALL: 0.07664
BRANCH_RETURN: 0.2436


====Backend Stall Breakdown====
ROB_STALL: 1918951
LQ_STALL: 0
SQ_STALL: 290786


====ROB Stall Breakdown====

== Average ==
ADDR_TRANS: 179.57274
REPLAY_LOAD: 58.786854
NON_REPLAY_LOAD: 14.775653

== Total ==
ADDR_TRANS: 549313
REPLAY_LOAD: 210163
NON_REPLAY_LOAD: 1159475

== Counts ==
ADDR_TRANS: 3059
REPLAY_LOAD: 3575
NON_REPLAY_LOAD: 78472

cpu0->cpu0_STLB TOTAL        ACCESS:    1516169 HIT:    1357053 MISS:     159116 MSHR_MERGE:          0
cpu0->cpu0_STLB LOAD         ACCESS:    1516169 HIT:    1357053 MISS:     159116 MSHR_MERGE:          0
cpu0->cpu0_STLB RFO          ACCESS:          0 HIT:          0 MISS:          0 MSHR_MERGE:          0
cpu0->cpu0_STLB PREFETCH     ACCESS:          0 HIT:          0 MISS:          0 MSHR_MERGE:          0
cpu0->cpu0_STLB WRITE        ACCESS:          0 HIT:          0 MISS:          0 MSHR_MERGE:          0
cpu0->cpu0_STLB TRANSLATION  ACCESS:          0 HIT:          0 MISS:          0 MSHR_MERGE:          0
cpu0->cpu0_STLB PREFETCH REQUESTED:          0 ISSUED:          0 USEFUL:          0 USELESS:          0
cpu0->cpu0_STLB AVERAGE MISS LATENCY: 128 cycles
cpu0->cpu0_L2C TOTAL        ACCESS:    4702915 HIT:    2798970 MISS:    1903945 MSHR_MERGE:          0
cpu0->cpu0_L2C LOAD         ACCESS:    3669933 HIT:    2142699 MISS:    1527234 MSHR_MERGE:          0
cpu0->cpu0_L2C RFO          ACCESS:     172614 HIT:      75665 MISS:      96949 MSHR_MERGE:          0
cpu0->cpu0_L2C PREFETCH     ACCESS:          0 HIT:          0 MISS:          0 MSHR_MERGE:          0
cpu0->cpu0_L2C WRITE        ACCESS:     528261 HIT:     525351 MISS:       2910 MSHR_MERGE:          0
cpu0->cpu0_L2C TRANSLATION  ACCESS:     332107 HIT:      55255 MISS:     276852 MSHR_MERGE:          0
cpu0->cpu0_L2C PREFETCH REQUESTED:          0 ISSUED:          0 USEFUL:          0 USELESS:          0
cpu0->cpu0_L2C AVERAGE MISS LATENCY: 38.97 cycles
cpu0->cpu0_L1I TOTAL        ACCESS:   14383606 HIT:   10817757 MISS:    3565849 MSHR_MERGE:    1010057
cpu0->cpu0_L1I LOAD         ACCESS:   14383606 HIT:   10817757 MISS:    3565849 MSHR_MERGE:    1010057
cpu0->cpu0_L1I RFO          ACCESS:          0 HIT:          0 MISS:          0 MSHR_MERGE:          0
cpu0->cpu0_L1I PREFETCH     ACCESS:          0 HIT:          0 MISS:          0 MSHR_MERGE:          0
cpu0->cpu0_L1I WRITE        ACCESS:          0 HIT:          0 MISS:          0 MSHR_MERGE:          0
cpu0->cpu0_L1I TRANSLATION  ACCESS:          0 HIT:          0 MISS:          0 MSHR_MERGE:          0
cpu0->cpu0_L1I PREFETCH REQUESTED:          0 ISSUED:          0 USEFUL:          0 USELESS:          0
cpu0->cpu0_L1I AVERAGE MISS LATENCY: 23.55 cycles
cpu0->cpu0_L1D TOTAL        ACCESS:   24798669 HIT:   22518183 MISS:    2280486 MSHR_MERGE:     661626
cpu0->cpu0_L1D LOAD         ACCESS:   14473463 HIT:   12965027 MISS:    1508436 MSHR_MERGE:     394302
cpu0->cpu0_L1D RFO          ACCESS:          0 HIT:          0 MISS:          0 MSHR_MERGE:          0
cpu0->cpu0_L1D PREFETCH     ACCESS:          0 HIT:          0 MISS:          0 MSHR_MERGE:          0
cpu0->cpu0_L1D WRITE        ACCESS:    9960438 HIT:    9523489 MISS:     436949 MSHR_MERGE:     264330
cpu0->cpu0_L1D TRANSLATION  ACCESS:     364768 HIT:      29667 MISS:     335101 MSHR_MERGE:       2994
cpu0->cpu0_L1D PREFETCH REQUESTED:          0 ISSUED:          0 USEFUL:          0 USELESS:          0
cpu0->cpu0_L1D AVERAGE MISS LATENCY: 39.16 cycles
cpu0->cpu0_ITLB TOTAL        ACCESS:   11806990 HIT:   10999069 MISS:     807921 MSHR_MERGE:     427075
cpu0->cpu0_ITLB LOAD         ACCESS:   11806990 HIT:   10999069 MISS:     807921 MSHR_MERGE:     427075
cpu0->cpu0_ITLB RFO          ACCESS:          0 HIT:          0 MISS:          0 MSHR_MERGE:          0
cpu0->cpu0_ITLB PREFETCH     ACCESS:          0 HIT:          0 MISS:          0 MSHR_MERGE:          0
cpu0->cpu0_ITLB WRITE        ACCESS:          0 HIT:          0 MISS:          0 MSHR_MERGE:          0
cpu0->cpu0_ITLB TRANSLATION  ACCESS:          0 HIT:          0 MISS:          0 MSHR_MERGE:          0
cpu0->cpu0_ITLB PREFETCH REQUESTED:          0 ISSUED:          0 USEFUL:          0 USELESS:          0
cpu0->cpu0_ITLB AVERAGE MISS LATENCY: 19.53 cycles
cpu0->cpu0_DTLB TOTAL        ACCESS:   23302675 HIT:   21772178 MISS:    1530497 MSHR_MERGE:     395174
cpu0->cpu0_DTLB LOAD         ACCESS:   23302675 HIT:   21772178 MISS:    1530497 MSHR_MERGE:     395174
cpu0->cpu0_DTLB RFO          ACCESS:          0 HIT:          0 MISS:          0 MSHR_MERGE:          0
cpu0->cpu0_DTLB PREFETCH     ACCESS:          0 HIT:          0 MISS:          0 MSHR_MERGE:          0
cpu0->cpu0_DTLB WRITE        ACCESS:          0 HIT:          0 MISS:          0 MSHR_MERGE:          0
cpu0->cpu0_DTLB TRANSLATION  ACCESS:          0 HIT:          0 MISS:          0 MSHR_MERGE:          0
cpu0->cpu0_DTLB PREFETCH REQUESTED:          0 ISSUED:          0 USEFUL:          0 USELESS:          0
cpu0->cpu0_DTLB AVERAGE MISS LATENCY: 18.22 cycles
cpu0->LLC TOTAL        ACCESS:    2197524 HIT:    2006944 MISS:     190580 MSHR_MERGE:          0
cpu0->LLC LOAD         ACCESS:    1527233 HIT:    1396195 MISS:     131038 MSHR_MERGE:          0
cpu0->LLC RFO          ACCESS:      96949 HIT:      72801 MISS:      24148 MSHR_MERGE:          0
cpu0->LLC PREFETCH     ACCESS:          0 HIT:          0 MISS:          0 MSHR_MERGE:          0
cpu0->LLC WRITE        ACCESS:     296490 HIT:     296267 MISS:        223 MSHR_MERGE:          0
cpu0->LLC TRANSLATION  ACCESS:     276852 HIT:     241681 MISS:      35171 MSHR_MERGE:          0
cpu0->LLC PREFETCH REQUESTED:          0 ISSUED:          0 USEFUL:          0 USELESS:          0
cpu0->LLC AVERAGE MISS LATENCY: 90.89 cycles

DRAM Statistics

Channel 0 RQ ROW_BUFFER_HIT:       3960
  ROW_BUFFER_MISS:     186397
  AVG DBUS CONGESTED CYCLE: 7.452
Channel 0 WQ ROW_BUFFER_HIT:      15280
  ROW_BUFFER_MISS:      93787
  FULL:          0
Channel 0 REFRESHES ISSUED:       8182
[2025-09-15 22:38:51] END   suite=qualcomm_srv trace=srv283_ap (rc=0)
