[2025-09-15 21:01:50] START suite=qualcomm_srv trace=srv274_ap
CMD: ./bin/champsim -w 20000000 -i 100000000 /home/ho/itp_asplos25_AE/traces/qualcomm_srv/srv274_ap.champsimtrace.xz
[VMEM] WARNING: physical memory size is smaller than virtual memory size.

*** ChampSim Multicore Out-of-Order Simulator ***
Warmup Instructions: 20000000
Simulation Instructions: 100000000
Number of CPUs: 1
Page size: 4096

Off-chip DRAM Size: 16 GiB Channels: 1 Width: 64-bit Data Rate: 3205 MT/s
[BTB] WARNING: target of return is a lower address than the corresponding call. This is usually a problem with your trace.
[BTB] WARNING: target of return is a lower address than the corresponding call. This is usually a problem with your trace.
[BTB] WARNING: target of return is a lower address than the corresponding call. This is usually a problem with your trace.
[BTB] WARNING: target of return is a lower address than the corresponding call. This is usually a problem with your trace.
[BTB] WARNING: target of return is a lower address than the corresponding call. This is usually a problem with your trace.
[BTB] WARNING: target of return is a lower address than the corresponding call. This is usually a problem with your trace.
[BTB] WARNING: target of return is a lower address than the corresponding call. This is usually a problem with your trace.
[BTB] WARNING: target of return is a lower address than the corresponding call. This is usually a problem with your trace.
[BTB] WARNING: target of return is a lower address than the corresponding call. This is usually a problem with your trace.
[BTB] WARNING: target of return is a lower address than the corresponding call. This is usually a problem with your trace.
Heartbeat CPU 0 instructions: 10000001 cycles: 2606517 heartbeat IPC: 3.837 cumulative IPC: 3.837 (Simulation time: 00 hr 00 min 35 sec)
Heartbeat CPU 0 instructions: 20000004 cycles: 5049494 heartbeat IPC: 4.093 cumulative IPC: 3.961 (Simulation time: 00 hr 01 min 09 sec)
Warmup finished CPU 0 instructions: 20000004 cycles: 5049494 cumulative IPC: 3.961 (Simulation time: 00 hr 01 min 09 sec)
Warmup complete CPU 0 instructions: 20000004 cycles: 5049494 cumulative IPC: 3.961 (Simulation time: 00 hr 01 min 09 sec)
Heartbeat CPU 0 instructions: 30000005 cycles: 14259986 heartbeat IPC: 1.086 cumulative IPC: 1.086 (Simulation time: 00 hr 02 min 12 sec)
Heartbeat CPU 0 instructions: 40000007 cycles: 23391697 heartbeat IPC: 1.095 cumulative IPC: 1.09 (Simulation time: 00 hr 03 min 14 sec)
Heartbeat CPU 0 instructions: 50000010 cycles: 32549532 heartbeat IPC: 1.092 cumulative IPC: 1.091 (Simulation time: 00 hr 04 min 16 sec)
Heartbeat CPU 0 instructions: 60000012 cycles: 41594091 heartbeat IPC: 1.106 cumulative IPC: 1.095 (Simulation time: 00 hr 05 min 18 sec)
Heartbeat CPU 0 instructions: 70000014 cycles: 50732815 heartbeat IPC: 1.094 cumulative IPC: 1.094 (Simulation time: 00 hr 06 min 22 sec)
Heartbeat CPU 0 instructions: 80000014 cycles: 59849787 heartbeat IPC: 1.097 cumulative IPC: 1.095 (Simulation time: 00 hr 07 min 25 sec)
Heartbeat CPU 0 instructions: 90000016 cycles: 69101761 heartbeat IPC: 1.081 cumulative IPC: 1.093 (Simulation time: 00 hr 08 min 33 sec)
Heartbeat CPU 0 instructions: 100000020 cycles: 78198529 heartbeat IPC: 1.099 cumulative IPC: 1.094 (Simulation time: 00 hr 09 min 39 sec)
*** Reached end of trace: (0, "/home/ho/itp_asplos25_AE/traces/qualcomm_srv/srv274_ap.champsimtrace.xz")
Heartbeat CPU 0 instructions: 110000022 cycles: 87299852 heartbeat IPC: 1.099 cumulative IPC: 1.094 (Simulation time: 00 hr 10 min 54 sec)
Simulation finished CPU 0 instructions: 100000001 cycles: 91394747 cumulative IPC: 1.094 (Simulation time: 00 hr 12 min 06 sec)
Simulation complete CPU 0 instructions: 100000001 cycles: 91394747 cumulative IPC: 1.094 (Simulation time: 00 hr 12 min 06 sec)

ChampSim completed all CPUs

=== Simulation ===
CPU 0 runs /home/ho/itp_asplos25_AE/traces/qualcomm_srv/srv274_ap.champsimtrace.xz

Region of Interest Statistics

CPU 0 cumulative IPC: 1.094 instructions: 100000001 cycles: 91394747
CPU 0 Branch Prediction Accuracy: 90.94% MPKI: 15.95 Average ROB Occupancy at Mispredict: 26
Branch type MPKI
BRANCH_DIRECT_JUMP: 0.3805
BRANCH_INDIRECT: 0.4198
BRANCH_CONDITIONAL: 12.99
BRANCH_DIRECT_CALL: 0.929
BRANCH_INDIRECT_CALL: 0.6045
BRANCH_RETURN: 0.622


====Backend Stall Breakdown====
ROB_STALL: 38373
LQ_STALL: 0
SQ_STALL: 550894


====ROB Stall Breakdown====

== Average ==
ADDR_TRANS: 78.30556
REPLAY_LOAD: 50.23256
NON_REPLAY_LOAD: 11.913664

== Total ==
ADDR_TRANS: 2819
REPLAY_LOAD: 2160
NON_REPLAY_LOAD: 33394

== Counts ==
ADDR_TRANS: 36
REPLAY_LOAD: 43
NON_REPLAY_LOAD: 2803

cpu0->cpu0_STLB TOTAL        ACCESS:    1873144 HIT:    1868893 MISS:       4251 MSHR_MERGE:          0
cpu0->cpu0_STLB LOAD         ACCESS:    1873144 HIT:    1868893 MISS:       4251 MSHR_MERGE:          0
cpu0->cpu0_STLB RFO          ACCESS:          0 HIT:          0 MISS:          0 MSHR_MERGE:          0
cpu0->cpu0_STLB PREFETCH     ACCESS:          0 HIT:          0 MISS:          0 MSHR_MERGE:          0
cpu0->cpu0_STLB WRITE        ACCESS:          0 HIT:          0 MISS:          0 MSHR_MERGE:          0
cpu0->cpu0_STLB TRANSLATION  ACCESS:          0 HIT:          0 MISS:          0 MSHR_MERGE:          0
cpu0->cpu0_STLB PREFETCH REQUESTED:          0 ISSUED:          0 USEFUL:          0 USELESS:          0
cpu0->cpu0_STLB AVERAGE MISS LATENCY: 245.6 cycles
cpu0->cpu0_L2C TOTAL        ACCESS:    8323568 HIT:    7246970 MISS:    1076598 MSHR_MERGE:          0
cpu0->cpu0_L2C LOAD         ACCESS:    6772374 HIT:    5867969 MISS:     904405 MSHR_MERGE:          0
cpu0->cpu0_L2C RFO          ACCESS:     554937 HIT:     407706 MISS:     147231 MSHR_MERGE:          0
cpu0->cpu0_L2C PREFETCH     ACCESS:          0 HIT:          0 MISS:          0 MSHR_MERGE:          0
cpu0->cpu0_L2C WRITE        ACCESS:     988503 HIT:     970644 MISS:      17859 MSHR_MERGE:          0
cpu0->cpu0_L2C TRANSLATION  ACCESS:       7754 HIT:        651 MISS:       7103 MSHR_MERGE:          0
cpu0->cpu0_L2C PREFETCH REQUESTED:          0 ISSUED:          0 USEFUL:          0 USELESS:          0
cpu0->cpu0_L2C AVERAGE MISS LATENCY: 34.08 cycles
cpu0->cpu0_L1I TOTAL        ACCESS:   15004410 HIT:    8008576 MISS:    6995834 MSHR_MERGE:    1659014
cpu0->cpu0_L1I LOAD         ACCESS:   15004410 HIT:    8008576 MISS:    6995834 MSHR_MERGE:    1659014
cpu0->cpu0_L1I RFO          ACCESS:          0 HIT:          0 MISS:          0 MSHR_MERGE:          0
cpu0->cpu0_L1I PREFETCH     ACCESS:          0 HIT:          0 MISS:          0 MSHR_MERGE:          0
cpu0->cpu0_L1I WRITE        ACCESS:          0 HIT:          0 MISS:          0 MSHR_MERGE:          0
cpu0->cpu0_L1I TRANSLATION  ACCESS:          0 HIT:          0 MISS:          0 MSHR_MERGE:          0
cpu0->cpu0_L1I PREFETCH REQUESTED:          0 ISSUED:          0 USEFUL:          0 USELESS:          0
cpu0->cpu0_L1I AVERAGE MISS LATENCY: 14.99 cycles
cpu0->cpu0_L1D TOTAL        ACCESS:   30470256 HIT:   26991390 MISS:    3478866 MSHR_MERGE:    1480621
cpu0->cpu0_L1D LOAD         ACCESS:   17117736 HIT:   15308096 MISS:    1809640 MSHR_MERGE:     374086
cpu0->cpu0_L1D RFO          ACCESS:          0 HIT:          0 MISS:          0 MSHR_MERGE:          0
cpu0->cpu0_L1D PREFETCH     ACCESS:          0 HIT:          0 MISS:          0 MSHR_MERGE:          0
cpu0->cpu0_L1D WRITE        ACCESS:   13343859 HIT:   11682485 MISS:    1661374 MSHR_MERGE:    1106437
cpu0->cpu0_L1D TRANSLATION  ACCESS:       8661 HIT:        809 MISS:       7852 MSHR_MERGE:         98
cpu0->cpu0_L1D PREFETCH REQUESTED:          0 ISSUED:          0 USEFUL:          0 USELESS:          0
cpu0->cpu0_L1D AVERAGE MISS LATENCY: 21.07 cycles
cpu0->cpu0_ITLB TOTAL        ACCESS:   12450200 HIT:   10533339 MISS:    1916861 MSHR_MERGE:     962534
cpu0->cpu0_ITLB LOAD         ACCESS:   12450200 HIT:   10533339 MISS:    1916861 MSHR_MERGE:     962534
cpu0->cpu0_ITLB RFO          ACCESS:          0 HIT:          0 MISS:          0 MSHR_MERGE:          0
cpu0->cpu0_ITLB PREFETCH     ACCESS:          0 HIT:          0 MISS:          0 MSHR_MERGE:          0
cpu0->cpu0_ITLB WRITE        ACCESS:          0 HIT:          0 MISS:          0 MSHR_MERGE:          0
cpu0->cpu0_ITLB TRANSLATION  ACCESS:          0 HIT:          0 MISS:          0 MSHR_MERGE:          0
cpu0->cpu0_ITLB PREFETCH REQUESTED:          0 ISSUED:          0 USEFUL:          0 USELESS:          0
cpu0->cpu0_ITLB AVERAGE MISS LATENCY: 5.104 cycles
cpu0->cpu0_DTLB TOTAL        ACCESS:   28908187 HIT:   27678914 MISS:    1229273 MSHR_MERGE:     310456
cpu0->cpu0_DTLB LOAD         ACCESS:   28908187 HIT:   27678914 MISS:    1229273 MSHR_MERGE:     310456
cpu0->cpu0_DTLB RFO          ACCESS:          0 HIT:          0 MISS:          0 MSHR_MERGE:          0
cpu0->cpu0_DTLB PREFETCH     ACCESS:          0 HIT:          0 MISS:          0 MSHR_MERGE:          0
cpu0->cpu0_DTLB WRITE        ACCESS:          0 HIT:          0 MISS:          0 MSHR_MERGE:          0
cpu0->cpu0_DTLB TRANSLATION  ACCESS:          0 HIT:          0 MISS:          0 MSHR_MERGE:          0
cpu0->cpu0_DTLB PREFETCH REQUESTED:          0 ISSUED:          0 USEFUL:          0 USELESS:          0
cpu0->cpu0_DTLB AVERAGE MISS LATENCY: 6.048 cycles
cpu0->LLC TOTAL        ACCESS:    1292932 HIT:    1246728 MISS:      46204 MSHR_MERGE:          0
cpu0->LLC LOAD         ACCESS:     904405 HIT:     886574 MISS:      17831 MSHR_MERGE:          0
cpu0->LLC RFO          ACCESS:     147227 HIT:     122966 MISS:      24261 MSHR_MERGE:          0
cpu0->LLC PREFETCH     ACCESS:          0 HIT:          0 MISS:          0 MSHR_MERGE:          0
cpu0->LLC WRITE        ACCESS:     234197 HIT:     234061 MISS:        136 MSHR_MERGE:          0
cpu0->LLC TRANSLATION  ACCESS:       7103 HIT:       3127 MISS:       3976 MSHR_MERGE:          0
cpu0->LLC PREFETCH REQUESTED:          0 ISSUED:          0 USEFUL:          0 USELESS:          0
cpu0->LLC AVERAGE MISS LATENCY: 106.2 cycles

DRAM Statistics

Channel 0 RQ ROW_BUFFER_HIT:       2954
  ROW_BUFFER_MISS:      43114
  AVG DBUS CONGESTED CYCLE: 3.4
Channel 0 WQ ROW_BUFFER_HIT:        672
  ROW_BUFFER_MISS:      17375
  FULL:          0
Channel 0 REFRESHES ISSUED:       7617
[2025-09-15 21:13:56] END   suite=qualcomm_srv trace=srv274_ap (rc=0)
