[2025-09-15 21:25:00] START suite=qualcomm_srv trace=srv221_ap
CMD: ./bin/champsim -w 20000000 -i 100000000 /home/ho/itp_asplos25_AE/traces/qualcomm_srv/srv221_ap.champsimtrace.xz
[VMEM] WARNING: physical memory size is smaller than virtual memory size.

*** ChampSim Multicore Out-of-Order Simulator ***
Warmup Instructions: 20000000
Simulation Instructions: 100000000
Number of CPUs: 1
Page size: 4096

Off-chip DRAM Size: 16 GiB Channels: 1 Width: 64-bit Data Rate: 3205 MT/s
[BTB] WARNING: target of return is a lower address than the corresponding call. This is usually a problem with your trace.
[BTB] WARNING: target of return is a lower address than the corresponding call. This is usually a problem with your trace.
[BTB] WARNING: target of return is a lower address than the corresponding call. This is usually a problem with your trace.
[BTB] WARNING: target of return is a lower address than the corresponding call. This is usually a problem with your trace.
[BTB] WARNING: target of return is a lower address than the corresponding call. This is usually a problem with your trace.
[BTB] WARNING: target of return is a lower address than the corresponding call. This is usually a problem with your trace.
[BTB] WARNING: target of return is a lower address than the corresponding call. This is usually a problem with your trace.
[BTB] WARNING: target of return is a lower address than the corresponding call. This is usually a problem with your trace.
[BTB] WARNING: target of return is a lower address than the corresponding call. This is usually a problem with your trace.
[BTB] WARNING: target of return is a lower address than the corresponding call. This is usually a problem with your trace.
Heartbeat CPU 0 instructions: 10000001 cycles: 2653041 heartbeat IPC: 3.769 cumulative IPC: 3.769 (Simulation time: 00 hr 00 min 37 sec)
Heartbeat CPU 0 instructions: 20000002 cycles: 5078771 heartbeat IPC: 4.122 cumulative IPC: 3.938 (Simulation time: 00 hr 01 min 15 sec)
Warmup finished CPU 0 instructions: 20000002 cycles: 5078771 cumulative IPC: 3.938 (Simulation time: 00 hr 01 min 15 sec)
Warmup complete CPU 0 instructions: 20000002 cycles: 5078771 cumulative IPC: 3.938 (Simulation time: 00 hr 01 min 15 sec)
Heartbeat CPU 0 instructions: 30000006 cycles: 13871204 heartbeat IPC: 1.137 cumulative IPC: 1.137 (Simulation time: 00 hr 02 min 28 sec)
Heartbeat CPU 0 instructions: 40000006 cycles: 22361144 heartbeat IPC: 1.178 cumulative IPC: 1.157 (Simulation time: 00 hr 03 min 35 sec)
Heartbeat CPU 0 instructions: 50000010 cycles: 30848441 heartbeat IPC: 1.178 cumulative IPC: 1.164 (Simulation time: 00 hr 04 min 44 sec)
Heartbeat CPU 0 instructions: 60000014 cycles: 39490211 heartbeat IPC: 1.157 cumulative IPC: 1.162 (Simulation time: 00 hr 05 min 55 sec)
Heartbeat CPU 0 instructions: 70000018 cycles: 48358114 heartbeat IPC: 1.128 cumulative IPC: 1.155 (Simulation time: 00 hr 07 min 08 sec)
Heartbeat CPU 0 instructions: 80000018 cycles: 56802006 heartbeat IPC: 1.184 cumulative IPC: 1.16 (Simulation time: 00 hr 08 min 20 sec)
Heartbeat CPU 0 instructions: 90000021 cycles: 65512044 heartbeat IPC: 1.148 cumulative IPC: 1.158 (Simulation time: 00 hr 09 min 27 sec)
Heartbeat CPU 0 instructions: 100000024 cycles: 74419816 heartbeat IPC: 1.123 cumulative IPC: 1.154 (Simulation time: 00 hr 10 min 39 sec)
*** Reached end of trace: (0, "/home/ho/itp_asplos25_AE/traces/qualcomm_srv/srv221_ap.champsimtrace.xz")
Heartbeat CPU 0 instructions: 110000025 cycles: 83240972 heartbeat IPC: 1.134 cumulative IPC: 1.151 (Simulation time: 00 hr 11 min 52 sec)
Simulation finished CPU 0 instructions: 100000002 cycles: 86608440 cumulative IPC: 1.155 (Simulation time: 00 hr 13 min 04 sec)
Simulation complete CPU 0 instructions: 100000002 cycles: 86608440 cumulative IPC: 1.155 (Simulation time: 00 hr 13 min 04 sec)

ChampSim completed all CPUs

=== Simulation ===
CPU 0 runs /home/ho/itp_asplos25_AE/traces/qualcomm_srv/srv221_ap.champsimtrace.xz

Region of Interest Statistics

CPU 0 cumulative IPC: 1.155 instructions: 100000002 cycles: 86608440
CPU 0 Branch Prediction Accuracy: 91.59% MPKI: 14.85 Average ROB Occupancy at Mispredict: 27.9
Branch type MPKI
BRANCH_DIRECT_JUMP: 0.2769
BRANCH_INDIRECT: 0.422
BRANCH_CONDITIONAL: 12.48
BRANCH_DIRECT_CALL: 0.698
BRANCH_INDIRECT_CALL: 0.5156
BRANCH_RETURN: 0.4506


====Backend Stall Breakdown====
ROB_STALL: 213874
LQ_STALL: 0
SQ_STALL: 578821


====ROB Stall Breakdown====

== Average ==
ADDR_TRANS: 120.854164
REPLAY_LOAD: 73.725
NON_REPLAY_LOAD: 18.532364

== Total ==
ADDR_TRANS: 17403
REPLAY_LOAD: 11796
NON_REPLAY_LOAD: 184675

== Counts ==
ADDR_TRANS: 144
REPLAY_LOAD: 160
NON_REPLAY_LOAD: 9965

cpu0->cpu0_STLB TOTAL        ACCESS:    1771949 HIT:    1765935 MISS:       6014 MSHR_MERGE:          0
cpu0->cpu0_STLB LOAD         ACCESS:    1771949 HIT:    1765935 MISS:       6014 MSHR_MERGE:          0
cpu0->cpu0_STLB RFO          ACCESS:          0 HIT:          0 MISS:          0 MSHR_MERGE:          0
cpu0->cpu0_STLB PREFETCH     ACCESS:          0 HIT:          0 MISS:          0 MSHR_MERGE:          0
cpu0->cpu0_STLB WRITE        ACCESS:          0 HIT:          0 MISS:          0 MSHR_MERGE:          0
cpu0->cpu0_STLB TRANSLATION  ACCESS:          0 HIT:          0 MISS:          0 MSHR_MERGE:          0
cpu0->cpu0_STLB PREFETCH REQUESTED:          0 ISSUED:          0 USEFUL:          0 USELESS:          0
cpu0->cpu0_STLB AVERAGE MISS LATENCY: 200.8 cycles
cpu0->cpu0_L2C TOTAL        ACCESS:    7704935 HIT:    6636838 MISS:    1068097 MSHR_MERGE:          0
cpu0->cpu0_L2C LOAD         ACCESS:    6246953 HIT:    5361055 MISS:     885898 MSHR_MERGE:          0
cpu0->cpu0_L2C RFO          ACCESS:     535921 HIT:     379566 MISS:     156355 MSHR_MERGE:          0
cpu0->cpu0_L2C PREFETCH     ACCESS:          0 HIT:          0 MISS:          0 MSHR_MERGE:          0
cpu0->cpu0_L2C WRITE        ACCESS:     911270 HIT:     894609 MISS:      16661 MSHR_MERGE:          0
cpu0->cpu0_L2C TRANSLATION  ACCESS:      10791 HIT:       1608 MISS:       9183 MSHR_MERGE:          0
cpu0->cpu0_L2C PREFETCH REQUESTED:          0 ISSUED:          0 USEFUL:          0 USELESS:          0
cpu0->cpu0_L2C AVERAGE MISS LATENCY: 37.58 cycles
cpu0->cpu0_L1I TOTAL        ACCESS:   14461560 HIT:    8080523 MISS:    6381037 MSHR_MERGE:    1536900
cpu0->cpu0_L1I LOAD         ACCESS:   14461560 HIT:    8080523 MISS:    6381037 MSHR_MERGE:    1536900
cpu0->cpu0_L1I RFO          ACCESS:          0 HIT:          0 MISS:          0 MSHR_MERGE:          0
cpu0->cpu0_L1I PREFETCH     ACCESS:          0 HIT:          0 MISS:          0 MSHR_MERGE:          0
cpu0->cpu0_L1I WRITE        ACCESS:          0 HIT:          0 MISS:          0 MSHR_MERGE:          0
cpu0->cpu0_L1I TRANSLATION  ACCESS:          0 HIT:          0 MISS:          0 MSHR_MERGE:          0
cpu0->cpu0_L1I PREFETCH REQUESTED:          0 ISSUED:          0 USEFUL:          0 USELESS:          0
cpu0->cpu0_L1I AVERAGE MISS LATENCY: 15.1 cycles
cpu0->cpu0_L1D TOTAL        ACCESS:   29896137 HIT:   26559758 MISS:    3336379 MSHR_MERGE:    1386789
cpu0->cpu0_L1D LOAD         ACCESS:   16850104 HIT:   15102740 MISS:    1747364 MSHR_MERGE:     344525
cpu0->cpu0_L1D RFO          ACCESS:          0 HIT:          0 MISS:          0 MSHR_MERGE:          0
cpu0->cpu0_L1D PREFETCH     ACCESS:          0 HIT:          0 MISS:          0 MSHR_MERGE:          0
cpu0->cpu0_L1D WRITE        ACCESS:   13033637 HIT:   11455432 MISS:    1578205 MSHR_MERGE:    1042245
cpu0->cpu0_L1D TRANSLATION  ACCESS:      12396 HIT:       1586 MISS:      10810 MSHR_MERGE:         19
cpu0->cpu0_L1D PREFETCH REQUESTED:          0 ISSUED:          0 USEFUL:          0 USELESS:          0
cpu0->cpu0_L1D AVERAGE MISS LATENCY: 23.85 cycles
cpu0->cpu0_ITLB TOTAL        ACCESS:   12093831 HIT:   10358830 MISS:    1735001 MSHR_MERGE:     874807
cpu0->cpu0_ITLB LOAD         ACCESS:   12093831 HIT:   10358830 MISS:    1735001 MSHR_MERGE:     874807
cpu0->cpu0_ITLB RFO          ACCESS:          0 HIT:          0 MISS:          0 MSHR_MERGE:          0
cpu0->cpu0_ITLB PREFETCH     ACCESS:          0 HIT:          0 MISS:          0 MSHR_MERGE:          0
cpu0->cpu0_ITLB WRITE        ACCESS:          0 HIT:          0 MISS:          0 MSHR_MERGE:          0
cpu0->cpu0_ITLB TRANSLATION  ACCESS:          0 HIT:          0 MISS:          0 MSHR_MERGE:          0
cpu0->cpu0_ITLB PREFETCH REQUESTED:          0 ISSUED:          0 USEFUL:          0 USELESS:          0
cpu0->cpu0_ITLB AVERAGE MISS LATENCY: 5.153 cycles
cpu0->cpu0_DTLB TOTAL        ACCESS:   28263601 HIT:   27048499 MISS:    1215102 MSHR_MERGE:     303347
cpu0->cpu0_DTLB LOAD         ACCESS:   28263601 HIT:   27048499 MISS:    1215102 MSHR_MERGE:     303347
cpu0->cpu0_DTLB RFO          ACCESS:          0 HIT:          0 MISS:          0 MSHR_MERGE:          0
cpu0->cpu0_DTLB PREFETCH     ACCESS:          0 HIT:          0 MISS:          0 MSHR_MERGE:          0
cpu0->cpu0_DTLB WRITE        ACCESS:          0 HIT:          0 MISS:          0 MSHR_MERGE:          0
cpu0->cpu0_DTLB TRANSLATION  ACCESS:          0 HIT:          0 MISS:          0 MSHR_MERGE:          0
cpu0->cpu0_DTLB PREFETCH REQUESTED:          0 ISSUED:          0 USEFUL:          0 USELESS:          0
cpu0->cpu0_DTLB AVERAGE MISS LATENCY: 6.205 cycles
cpu0->LLC TOTAL        ACCESS:    1288563 HIT:    1218464 MISS:      70099 MSHR_MERGE:          0
cpu0->LLC LOAD         ACCESS:     885897 HIT:     858149 MISS:      27748 MSHR_MERGE:          0
cpu0->LLC RFO          ACCESS:     156355 HIT:     118662 MISS:      37693 MSHR_MERGE:          0
cpu0->LLC PREFETCH     ACCESS:          0 HIT:          0 MISS:          0 MSHR_MERGE:          0
cpu0->LLC WRITE        ACCESS:     237128 HIT:     236866 MISS:        262 MSHR_MERGE:          0
cpu0->LLC TRANSLATION  ACCESS:       9183 HIT:       4787 MISS:       4396 MSHR_MERGE:          0
cpu0->LLC PREFETCH REQUESTED:          0 ISSUED:          0 USEFUL:          0 USELESS:          0
cpu0->LLC AVERAGE MISS LATENCY: 122.1 cycles

DRAM Statistics

Channel 0 RQ ROW_BUFFER_HIT:       3537
  ROW_BUFFER_MISS:      66299
  AVG DBUS CONGESTED CYCLE: 3.527
Channel 0 WQ ROW_BUFFER_HIT:       1495
  ROW_BUFFER_MISS:      35173
  FULL:          0
Channel 0 REFRESHES ISSUED:       7217
[2025-09-15 21:38:04] END   suite=qualcomm_srv trace=srv221_ap (rc=0)
