[2025-09-15 22:27:10] START suite=qualcomm_srv trace=srv297_ap
CMD: ./bin/champsim -w 20000000 -i 100000000 /home/ho/itp_asplos25_AE/traces/qualcomm_srv/srv297_ap.champsimtrace.xz
[VMEM] WARNING: physical memory size is smaller than virtual memory size.

*** ChampSim Multicore Out-of-Order Simulator ***
Warmup Instructions: 20000000
Simulation Instructions: 100000000
Number of CPUs: 1
Page size: 4096

Off-chip DRAM Size: 16 GiB Channels: 1 Width: 64-bit Data Rate: 3205 MT/s
[BTB] WARNING: target of return is a lower address than the corresponding call. This is usually a problem with your trace.
[BTB] WARNING: target of return is a lower address than the corresponding call. This is usually a problem with your trace.
[BTB] WARNING: target of return is a lower address than the corresponding call. This is usually a problem with your trace.
[BTB] WARNING: target of return is a lower address than the corresponding call. This is usually a problem with your trace.
[BTB] WARNING: target of return is a lower address than the corresponding call. This is usually a problem with your trace.
[BTB] WARNING: target of return is a lower address than the corresponding call. This is usually a problem with your trace.
[BTB] WARNING: target of return is a lower address than the corresponding call. This is usually a problem with your trace.
[BTB] WARNING: target of return is a lower address than the corresponding call. This is usually a problem with your trace.
[BTB] WARNING: target of return is a lower address than the corresponding call. This is usually a problem with your trace.
[BTB] WARNING: target of return is a lower address than the corresponding call. This is usually a problem with your trace.
Heartbeat CPU 0 instructions: 10000001 cycles: 2580501 heartbeat IPC: 3.875 cumulative IPC: 3.875 (Simulation time: 00 hr 00 min 36 sec)
Heartbeat CPU 0 instructions: 20000001 cycles: 5440454 heartbeat IPC: 3.497 cumulative IPC: 3.676 (Simulation time: 00 hr 01 min 12 sec)
Warmup finished CPU 0 instructions: 20000001 cycles: 5440454 cumulative IPC: 3.676 (Simulation time: 00 hr 01 min 12 sec)
Warmup complete CPU 0 instructions: 20000001 cycles: 5440454 cumulative IPC: 3.676 (Simulation time: 00 hr 01 min 12 sec)
Heartbeat CPU 0 instructions: 30000004 cycles: 9423063 heartbeat IPC: 2.511 cumulative IPC: 2.511 (Simulation time: 00 hr 02 min 01 sec)
Heartbeat CPU 0 instructions: 40000007 cycles: 13599003 heartbeat IPC: 2.395 cumulative IPC: 2.451 (Simulation time: 00 hr 02 min 50 sec)
Heartbeat CPU 0 instructions: 50000009 cycles: 17560524 heartbeat IPC: 2.524 cumulative IPC: 2.475 (Simulation time: 00 hr 03 min 40 sec)
Heartbeat CPU 0 instructions: 60000010 cycles: 21528832 heartbeat IPC: 2.52 cumulative IPC: 2.486 (Simulation time: 00 hr 04 min 26 sec)
Heartbeat CPU 0 instructions: 70000010 cycles: 25498161 heartbeat IPC: 2.519 cumulative IPC: 2.493 (Simulation time: 00 hr 05 min 12 sec)
Heartbeat CPU 0 instructions: 80000010 cycles: 29482500 heartbeat IPC: 2.51 cumulative IPC: 2.496 (Simulation time: 00 hr 06 min 00 sec)
Heartbeat CPU 0 instructions: 90000011 cycles: 33469632 heartbeat IPC: 2.508 cumulative IPC: 2.497 (Simulation time: 00 hr 06 min 47 sec)
Heartbeat CPU 0 instructions: 100000012 cycles: 37448964 heartbeat IPC: 2.513 cumulative IPC: 2.499 (Simulation time: 00 hr 07 min 33 sec)
Heartbeat CPU 0 instructions: 110000015 cycles: 41431465 heartbeat IPC: 2.511 cumulative IPC: 2.501 (Simulation time: 00 hr 08 min 18 sec)
Simulation finished CPU 0 instructions: 100000002 cycles: 39976336 cumulative IPC: 2.501 (Simulation time: 00 hr 09 min 06 sec)
Simulation complete CPU 0 instructions: 100000002 cycles: 39976336 cumulative IPC: 2.501 (Simulation time: 00 hr 09 min 06 sec)

ChampSim completed all CPUs

=== Simulation ===
CPU 0 runs /home/ho/itp_asplos25_AE/traces/qualcomm_srv/srv297_ap.champsimtrace.xz

Region of Interest Statistics

CPU 0 cumulative IPC: 2.501 instructions: 100000002 cycles: 39976336
CPU 0 Branch Prediction Accuracy: 97.2% MPKI: 4.352 Average ROB Occupancy at Mispredict: 54.67
Branch type MPKI
BRANCH_DIRECT_JUMP: 0.00046
BRANCH_INDIRECT: 0
BRANCH_CONDITIONAL: 4.183
BRANCH_DIRECT_CALL: 0.00125
BRANCH_INDIRECT_CALL: 0.00286
BRANCH_RETURN: 0.1646


====Backend Stall Breakdown====
ROB_STALL: 64111
LQ_STALL: 0
SQ_STALL: 976442


====ROB Stall Breakdown====

== Average ==
ADDR_TRANS: 238.60759
REPLAY_LOAD: 83.58491
NON_REPLAY_LOAD: 52.451008

== Total ==
ADDR_TRANS: 18850
REPLAY_LOAD: 8860
NON_REPLAY_LOAD: 36401

== Counts ==
ADDR_TRANS: 79
REPLAY_LOAD: 106
NON_REPLAY_LOAD: 694

cpu0->cpu0_STLB TOTAL        ACCESS:     841532 HIT:     841281 MISS:        251 MSHR_MERGE:          0
cpu0->cpu0_STLB LOAD         ACCESS:     841532 HIT:     841281 MISS:        251 MSHR_MERGE:          0
cpu0->cpu0_STLB RFO          ACCESS:          0 HIT:          0 MISS:          0 MSHR_MERGE:          0
cpu0->cpu0_STLB PREFETCH     ACCESS:          0 HIT:          0 MISS:          0 MSHR_MERGE:          0
cpu0->cpu0_STLB WRITE        ACCESS:          0 HIT:          0 MISS:          0 MSHR_MERGE:          0
cpu0->cpu0_STLB TRANSLATION  ACCESS:          0 HIT:          0 MISS:          0 MSHR_MERGE:          0
cpu0->cpu0_STLB PREFETCH REQUESTED:          0 ISSUED:          0 USEFUL:          0 USELESS:          0
cpu0->cpu0_STLB AVERAGE MISS LATENCY: 511.2 cycles
cpu0->cpu0_L2C TOTAL        ACCESS:    1484686 HIT:    1481243 MISS:       3443 MSHR_MERGE:          0
cpu0->cpu0_L2C LOAD         ACCESS:    1482469 HIT:    1479648 MISS:       2821 MSHR_MERGE:          0
cpu0->cpu0_L2C RFO          ACCESS:        363 HIT:        155 MISS:        208 MSHR_MERGE:          0
cpu0->cpu0_L2C PREFETCH     ACCESS:          0 HIT:          0 MISS:          0 MSHR_MERGE:          0
cpu0->cpu0_L2C WRITE        ACCESS:       1431 HIT:       1428 MISS:          3 MSHR_MERGE:          0
cpu0->cpu0_L2C TRANSLATION  ACCESS:        423 HIT:         12 MISS:        411 MSHR_MERGE:          0
cpu0->cpu0_L2C PREFETCH REQUESTED:          0 ISSUED:          0 USEFUL:          0 USELESS:          0
cpu0->cpu0_L2C AVERAGE MISS LATENCY: 118.4 cycles
cpu0->cpu0_L1I TOTAL        ACCESS:   16143177 HIT:   14031972 MISS:    2111205 MSHR_MERGE:     631704
cpu0->cpu0_L1I LOAD         ACCESS:   16143177 HIT:   14031972 MISS:    2111205 MSHR_MERGE:     631704
cpu0->cpu0_L1I RFO          ACCESS:          0 HIT:          0 MISS:          0 MSHR_MERGE:          0
cpu0->cpu0_L1I PREFETCH     ACCESS:          0 HIT:          0 MISS:          0 MSHR_MERGE:          0
cpu0->cpu0_L1I WRITE        ACCESS:          0 HIT:          0 MISS:          0 MSHR_MERGE:          0
cpu0->cpu0_L1I TRANSLATION  ACCESS:          0 HIT:          0 MISS:          0 MSHR_MERGE:          0
cpu0->cpu0_L1I PREFETCH REQUESTED:          0 ISSUED:          0 USEFUL:          0 USELESS:          0
cpu0->cpu0_L1I AVERAGE MISS LATENCY: 11.09 cycles
cpu0->cpu0_L1D TOTAL        ACCESS:   28662343 HIT:   28656937 MISS:       5406 MSHR_MERGE:       1650
cpu0->cpu0_L1D LOAD         ACCESS:   12881441 HIT:   12877418 MISS:       4023 MSHR_MERGE:       1053
cpu0->cpu0_L1D RFO          ACCESS:          0 HIT:          0 MISS:          0 MSHR_MERGE:          0
cpu0->cpu0_L1D PREFETCH     ACCESS:          0 HIT:          0 MISS:          0 MSHR_MERGE:          0
cpu0->cpu0_L1D WRITE        ACCESS:   15780367 HIT:   15779417 MISS:        950 MSHR_MERGE:        587
cpu0->cpu0_L1D TRANSLATION  ACCESS:        535 HIT:        102 MISS:        433 MSHR_MERGE:         10
cpu0->cpu0_L1D PREFETCH REQUESTED:          0 ISSUED:          0 USEFUL:          0 USELESS:          0
cpu0->cpu0_L1D AVERAGE MISS LATENCY: 102 cycles
cpu0->cpu0_ITLB TOTAL        ACCESS:   13300042 HIT:   12379708 MISS:     920334 MSHR_MERGE:     545398
cpu0->cpu0_ITLB LOAD         ACCESS:   13300042 HIT:   12379708 MISS:     920334 MSHR_MERGE:     545398
cpu0->cpu0_ITLB RFO          ACCESS:          0 HIT:          0 MISS:          0 MSHR_MERGE:          0
cpu0->cpu0_ITLB PREFETCH     ACCESS:          0 HIT:          0 MISS:          0 MSHR_MERGE:          0
cpu0->cpu0_ITLB WRITE        ACCESS:          0 HIT:          0 MISS:          0 MSHR_MERGE:          0
cpu0->cpu0_ITLB TRANSLATION  ACCESS:          0 HIT:          0 MISS:          0 MSHR_MERGE:          0
cpu0->cpu0_ITLB PREFETCH REQUESTED:          0 ISSUED:          0 USEFUL:          0 USELESS:          0
cpu0->cpu0_ITLB AVERAGE MISS LATENCY: 5.042 cycles
cpu0->cpu0_DTLB TOTAL        ACCESS:   26238873 HIT:   25377701 MISS:     861172 MSHR_MERGE:     394576
cpu0->cpu0_DTLB LOAD         ACCESS:   26238873 HIT:   25377701 MISS:     861172 MSHR_MERGE:     394576
cpu0->cpu0_DTLB RFO          ACCESS:          0 HIT:          0 MISS:          0 MSHR_MERGE:          0
cpu0->cpu0_DTLB PREFETCH     ACCESS:          0 HIT:          0 MISS:          0 MSHR_MERGE:          0
cpu0->cpu0_DTLB WRITE        ACCESS:          0 HIT:          0 MISS:          0 MSHR_MERGE:          0
cpu0->cpu0_DTLB TRANSLATION  ACCESS:          0 HIT:          0 MISS:          0 MSHR_MERGE:          0
cpu0->cpu0_DTLB PREFETCH REQUESTED:          0 ISSUED:          0 USEFUL:          0 USELESS:          0
cpu0->cpu0_DTLB AVERAGE MISS LATENCY: 5.26 cycles
cpu0->LLC TOTAL        ACCESS:       5062 HIT:       2007 MISS:       3055 MSHR_MERGE:          0
cpu0->LLC LOAD         ACCESS:       2821 HIT:        355 MISS:       2466 MSHR_MERGE:          0
cpu0->LLC RFO          ACCESS:        208 HIT:         24 MISS:        184 MSHR_MERGE:          0
cpu0->LLC PREFETCH     ACCESS:          0 HIT:          0 MISS:          0 MSHR_MERGE:          0
cpu0->LLC WRITE        ACCESS:       1622 HIT:       1619 MISS:          3 MSHR_MERGE:          0
cpu0->LLC TRANSLATION  ACCESS:        411 HIT:          9 MISS:        402 MSHR_MERGE:          0
cpu0->LLC PREFETCH REQUESTED:          0 ISSUED:          0 USEFUL:          0 USELESS:          0
cpu0->LLC AVERAGE MISS LATENCY: 100.1 cycles

DRAM Statistics

Channel 0 RQ ROW_BUFFER_HIT:         55
  ROW_BUFFER_MISS:       2997
  AVG DBUS CONGESTED CYCLE: 7.809
Channel 0 WQ ROW_BUFFER_HIT:        511
  ROW_BUFFER_MISS:       1545
  FULL:          0
Channel 0 REFRESHES ISSUED:       3331
[2025-09-15 22:36:17] END   suite=qualcomm_srv trace=srv297_ap (rc=0)
