[2025-09-15 23:41:30] START suite=qualcomm_srv trace=srv349_ap
CMD: ./bin/champsim -w 20000000 -i 100000000 /home/ho/itp_asplos25_AE/traces/qualcomm_srv/srv349_ap.champsimtrace.xz
[VMEM] WARNING: physical memory size is smaller than virtual memory size.

*** ChampSim Multicore Out-of-Order Simulator ***
Warmup Instructions: 20000000
Simulation Instructions: 100000000
Number of CPUs: 1
Page size: 4096

Off-chip DRAM Size: 16 GiB Channels: 1 Width: 64-bit Data Rate: 3205 MT/s
[BTB] WARNING: target of return is a lower address than the corresponding call. This is usually a problem with your trace.
[BTB] WARNING: target of return is a lower address than the corresponding call. This is usually a problem with your trace.
[BTB] WARNING: target of return is a lower address than the corresponding call. This is usually a problem with your trace.
[BTB] WARNING: target of return is a lower address than the corresponding call. This is usually a problem with your trace.
[BTB] WARNING: target of return is a lower address than the corresponding call. This is usually a problem with your trace.
[BTB] WARNING: target of return is a lower address than the corresponding call. This is usually a problem with your trace.
[BTB] WARNING: target of return is a lower address than the corresponding call. This is usually a problem with your trace.
[BTB] WARNING: target of return is a lower address than the corresponding call. This is usually a problem with your trace.
[BTB] WARNING: target of return is a lower address than the corresponding call. This is usually a problem with your trace.
[BTB] WARNING: target of return is a lower address than the corresponding call. This is usually a problem with your trace.
Heartbeat CPU 0 instructions: 10000000 cycles: 2851538 heartbeat IPC: 3.507 cumulative IPC: 3.507 (Simulation time: 00 hr 00 min 39 sec)
Heartbeat CPU 0 instructions: 20000000 cycles: 5293320 heartbeat IPC: 4.095 cumulative IPC: 3.778 (Simulation time: 00 hr 01 min 15 sec)
Warmup finished CPU 0 instructions: 20000000 cycles: 5293320 cumulative IPC: 3.778 (Simulation time: 00 hr 01 min 15 sec)
Warmup complete CPU 0 instructions: 20000000 cycles: 5293320 cumulative IPC: 3.778 (Simulation time: 00 hr 01 min 15 sec)
Heartbeat CPU 0 instructions: 30000002 cycles: 15025481 heartbeat IPC: 1.028 cumulative IPC: 1.028 (Simulation time: 00 hr 02 min 36 sec)
Heartbeat CPU 0 instructions: 40000004 cycles: 25108785 heartbeat IPC: 0.9917 cumulative IPC: 1.009 (Simulation time: 00 hr 03 min 51 sec)
Heartbeat CPU 0 instructions: 50000005 cycles: 35282942 heartbeat IPC: 0.9829 cumulative IPC: 1 (Simulation time: 00 hr 05 min 05 sec)
Heartbeat CPU 0 instructions: 60000008 cycles: 45270382 heartbeat IPC: 1.001 cumulative IPC: 1.001 (Simulation time: 00 hr 06 min 14 sec)
Heartbeat CPU 0 instructions: 70000008 cycles: 55446286 heartbeat IPC: 0.9827 cumulative IPC: 0.997 (Simulation time: 00 hr 07 min 35 sec)
Heartbeat CPU 0 instructions: 80000010 cycles: 65284205 heartbeat IPC: 1.016 cumulative IPC: 1 (Simulation time: 00 hr 08 min 50 sec)
Heartbeat CPU 0 instructions: 90000014 cycles: 75298349 heartbeat IPC: 0.9986 cumulative IPC: 0.9999 (Simulation time: 00 hr 10 min 05 sec)
Heartbeat CPU 0 instructions: 100000017 cycles: 84922650 heartbeat IPC: 1.039 cumulative IPC: 1.005 (Simulation time: 00 hr 11 min 23 sec)
*** Reached end of trace: (0, "/home/ho/itp_asplos25_AE/traces/qualcomm_srv/srv349_ap.champsimtrace.xz")
Heartbeat CPU 0 instructions: 110000019 cycles: 94825656 heartbeat IPC: 1.01 cumulative IPC: 1.005 (Simulation time: 00 hr 12 min 42 sec)
Simulation finished CPU 0 instructions: 100000001 cycles: 99297542 cumulative IPC: 1.007 (Simulation time: 00 hr 14 min 00 sec)
Simulation complete CPU 0 instructions: 100000001 cycles: 99297542 cumulative IPC: 1.007 (Simulation time: 00 hr 14 min 00 sec)

ChampSim completed all CPUs

=== Simulation ===
CPU 0 runs /home/ho/itp_asplos25_AE/traces/qualcomm_srv/srv349_ap.champsimtrace.xz

Region of Interest Statistics

CPU 0 cumulative IPC: 1.007 instructions: 100000001 cycles: 99297542
CPU 0 Branch Prediction Accuracy: 94.26% MPKI: 10.3 Average ROB Occupancy at Mispredict: 41.31
Branch type MPKI
BRANCH_DIRECT_JUMP: 0.1346
BRANCH_INDIRECT: 0.1743
BRANCH_CONDITIONAL: 9.415
BRANCH_DIRECT_CALL: 0.2481
BRANCH_INDIRECT_CALL: 0.08019
BRANCH_RETURN: 0.2491


====Backend Stall Breakdown====
ROB_STALL: 1941724
LQ_STALL: 13877
SQ_STALL: 319892


====ROB Stall Breakdown====

== Average ==
ADDR_TRANS: 197.3943
REPLAY_LOAD: 62.2612
NON_REPLAY_LOAD: 14.779743

== Total ==
ADDR_TRANS: 553691
REPLAY_LOAD: 204279
NON_REPLAY_LOAD: 1183754

== Counts ==
ADDR_TRANS: 2805
REPLAY_LOAD: 3281
NON_REPLAY_LOAD: 80093

cpu0->cpu0_STLB TOTAL        ACCESS:    1644516 HIT:    1483225 MISS:     161291 MSHR_MERGE:          0
cpu0->cpu0_STLB LOAD         ACCESS:    1644516 HIT:    1483225 MISS:     161291 MSHR_MERGE:          0
cpu0->cpu0_STLB RFO          ACCESS:          0 HIT:          0 MISS:          0 MSHR_MERGE:          0
cpu0->cpu0_STLB PREFETCH     ACCESS:          0 HIT:          0 MISS:          0 MSHR_MERGE:          0
cpu0->cpu0_STLB WRITE        ACCESS:          0 HIT:          0 MISS:          0 MSHR_MERGE:          0
cpu0->cpu0_STLB TRANSLATION  ACCESS:          0 HIT:          0 MISS:          0 MSHR_MERGE:          0
cpu0->cpu0_STLB PREFETCH REQUESTED:          0 ISSUED:          0 USEFUL:          0 USELESS:          0
cpu0->cpu0_STLB AVERAGE MISS LATENCY: 129.4 cycles
cpu0->cpu0_L2C TOTAL        ACCESS:    4715046 HIT:    2828608 MISS:    1886438 MSHR_MERGE:          0
cpu0->cpu0_L2C LOAD         ACCESS:    3672941 HIT:    2165089 MISS:    1507852 MSHR_MERGE:          0
cpu0->cpu0_L2C RFO          ACCESS:     174155 HIT:      80557 MISS:      93598 MSHR_MERGE:          0
cpu0->cpu0_L2C PREFETCH     ACCESS:          0 HIT:          0 MISS:          0 MSHR_MERGE:          0
cpu0->cpu0_L2C WRITE        ACCESS:     530719 HIT:     528734 MISS:       1985 MSHR_MERGE:          0
cpu0->cpu0_L2C TRANSLATION  ACCESS:     337231 HIT:      54228 MISS:     283003 MSHR_MERGE:          0
cpu0->cpu0_L2C PREFETCH REQUESTED:          0 ISSUED:          0 USEFUL:          0 USELESS:          0
cpu0->cpu0_L2C AVERAGE MISS LATENCY: 39.81 cycles
cpu0->cpu0_L1I TOTAL        ACCESS:   14367881 HIT:   10805935 MISS:    3561946 MSHR_MERGE:    1008481
cpu0->cpu0_L1I LOAD         ACCESS:   14367881 HIT:   10805935 MISS:    3561946 MSHR_MERGE:    1008481
cpu0->cpu0_L1I RFO          ACCESS:          0 HIT:          0 MISS:          0 MSHR_MERGE:          0
cpu0->cpu0_L1I PREFETCH     ACCESS:          0 HIT:          0 MISS:          0 MSHR_MERGE:          0
cpu0->cpu0_L1I WRITE        ACCESS:          0 HIT:          0 MISS:          0 MSHR_MERGE:          0
cpu0->cpu0_L1I TRANSLATION  ACCESS:          0 HIT:          0 MISS:          0 MSHR_MERGE:          0
cpu0->cpu0_L1I PREFETCH REQUESTED:          0 ISSUED:          0 USEFUL:          0 USELESS:          0
cpu0->cpu0_L1I AVERAGE MISS LATENCY: 23.45 cycles
cpu0->cpu0_L1D TOTAL        ACCESS:   24793005 HIT:   22495850 MISS:    2297155 MSHR_MERGE:     666284
cpu0->cpu0_L1D LOAD         ACCESS:   14455800 HIT:   12941879 MISS:    1513921 MSHR_MERGE:     394441
cpu0->cpu0_L1D RFO          ACCESS:          0 HIT:          0 MISS:          0 MSHR_MERGE:          0
cpu0->cpu0_L1D PREFETCH     ACCESS:          0 HIT:          0 MISS:          0 MSHR_MERGE:          0
cpu0->cpu0_L1D WRITE        ACCESS:    9967175 HIT:    9524136 MISS:     443039 MSHR_MERGE:     268879
cpu0->cpu0_L1D TRANSLATION  ACCESS:     370030 HIT:      29835 MISS:     340195 MSHR_MERGE:       2964
cpu0->cpu0_L1D PREFETCH REQUESTED:          0 ISSUED:          0 USEFUL:          0 USELESS:          0
cpu0->cpu0_L1D AVERAGE MISS LATENCY: 39.66 cycles
cpu0->cpu0_ITLB TOTAL        ACCESS:   11793524 HIT:   10985755 MISS:     807769 MSHR_MERGE:     427476
cpu0->cpu0_ITLB LOAD         ACCESS:   11793524 HIT:   10985755 MISS:     807769 MSHR_MERGE:     427476
cpu0->cpu0_ITLB RFO          ACCESS:          0 HIT:          0 MISS:          0 MSHR_MERGE:          0
cpu0->cpu0_ITLB PREFETCH     ACCESS:          0 HIT:          0 MISS:          0 MSHR_MERGE:          0
cpu0->cpu0_ITLB WRITE        ACCESS:          0 HIT:          0 MISS:          0 MSHR_MERGE:          0
cpu0->cpu0_ITLB TRANSLATION  ACCESS:          0 HIT:          0 MISS:          0 MSHR_MERGE:          0
cpu0->cpu0_ITLB PREFETCH REQUESTED:          0 ISSUED:          0 USEFUL:          0 USELESS:          0
cpu0->cpu0_ITLB AVERAGE MISS LATENCY: 20.07 cycles
cpu0->cpu0_DTLB TOTAL        ACCESS:   23302128 HIT:   21611939 MISS:    1690189 MSHR_MERGE:     425966
cpu0->cpu0_DTLB LOAD         ACCESS:   23302128 HIT:   21611939 MISS:    1690189 MSHR_MERGE:     425966
cpu0->cpu0_DTLB RFO          ACCESS:          0 HIT:          0 MISS:          0 MSHR_MERGE:          0
cpu0->cpu0_DTLB PREFETCH     ACCESS:          0 HIT:          0 MISS:          0 MSHR_MERGE:          0
cpu0->cpu0_DTLB WRITE        ACCESS:          0 HIT:          0 MISS:          0 MSHR_MERGE:          0
cpu0->cpu0_DTLB TRANSLATION  ACCESS:          0 HIT:          0 MISS:          0 MSHR_MERGE:          0
cpu0->cpu0_DTLB PREFETCH REQUESTED:          0 ISSUED:          0 USEFUL:          0 USELESS:          0
cpu0->cpu0_DTLB AVERAGE MISS LATENCY: 17.11 cycles
cpu0->LLC TOTAL        ACCESS:    2167105 HIT:    1965534 MISS:     201571 MSHR_MERGE:          0
cpu0->LLC LOAD         ACCESS:    1507852 HIT:    1369535 MISS:     138317 MSHR_MERGE:          0
cpu0->LLC RFO          ACCESS:      93598 HIT:      68575 MISS:      25023 MSHR_MERGE:          0
cpu0->LLC PREFETCH     ACCESS:          0 HIT:          0 MISS:          0 MSHR_MERGE:          0
cpu0->LLC WRITE        ACCESS:     282652 HIT:     282337 MISS:        315 MSHR_MERGE:          0
cpu0->LLC TRANSLATION  ACCESS:     283003 HIT:     245087 MISS:      37916 MSHR_MERGE:          0
cpu0->LLC PREFETCH REQUESTED:          0 ISSUED:          0 USEFUL:          0 USELESS:          0
cpu0->LLC AVERAGE MISS LATENCY: 92.92 cycles

DRAM Statistics

Channel 0 RQ ROW_BUFFER_HIT:       3935
  ROW_BUFFER_MISS:     197320
  AVG DBUS CONGESTED CYCLE: 7.604
Channel 0 WQ ROW_BUFFER_HIT:      15808
  ROW_BUFFER_MISS:      95259
  FULL:          0
Channel 0 REFRESHES ISSUED:       8274
[2025-09-15 23:55:30] END   suite=qualcomm_srv trace=srv349_ap (rc=0)
