[2025-09-15 21:40:31] START suite=qualcomm_srv trace=srv375_ap
CMD: ./bin/champsim -w 20000000 -i 100000000 /home/ho/itp_asplos25_AE/traces/qualcomm_srv/srv375_ap.champsimtrace.xz
[VMEM] WARNING: physical memory size is smaller than virtual memory size.

*** ChampSim Multicore Out-of-Order Simulator ***
Warmup Instructions: 20000000
Simulation Instructions: 100000000
Number of CPUs: 1
Page size: 4096

Off-chip DRAM Size: 16 GiB Channels: 1 Width: 64-bit Data Rate: 3205 MT/s
[BTB] WARNING: target of return is a lower address than the corresponding call. This is usually a problem with your trace.
[BTB] WARNING: target of return is a lower address than the corresponding call. This is usually a problem with your trace.
[BTB] WARNING: target of return is a lower address than the corresponding call. This is usually a problem with your trace.
[BTB] WARNING: target of return is a lower address than the corresponding call. This is usually a problem with your trace.
[BTB] WARNING: target of return is a lower address than the corresponding call. This is usually a problem with your trace.
[BTB] WARNING: target of return is a lower address than the corresponding call. This is usually a problem with your trace.
[BTB] WARNING: target of return is a lower address than the corresponding call. This is usually a problem with your trace.
[BTB] WARNING: target of return is a lower address than the corresponding call. This is usually a problem with your trace.
[BTB] WARNING: target of return is a lower address than the corresponding call. This is usually a problem with your trace.
[BTB] WARNING: target of return is a lower address than the corresponding call. This is usually a problem with your trace.
Heartbeat CPU 0 instructions: 10000001 cycles: 2809438 heartbeat IPC: 3.559 cumulative IPC: 3.559 (Simulation time: 00 hr 00 min 39 sec)
Heartbeat CPU 0 instructions: 20000002 cycles: 5376778 heartbeat IPC: 3.895 cumulative IPC: 3.72 (Simulation time: 00 hr 01 min 16 sec)
Warmup finished CPU 0 instructions: 20000002 cycles: 5376778 cumulative IPC: 3.72 (Simulation time: 00 hr 01 min 16 sec)
Warmup complete CPU 0 instructions: 20000002 cycles: 5376778 cumulative IPC: 3.72 (Simulation time: 00 hr 01 min 16 sec)
Heartbeat CPU 0 instructions: 30000004 cycles: 14789199 heartbeat IPC: 1.062 cumulative IPC: 1.062 (Simulation time: 00 hr 02 min 32 sec)
Heartbeat CPU 0 instructions: 40000008 cycles: 24055737 heartbeat IPC: 1.079 cumulative IPC: 1.071 (Simulation time: 00 hr 03 min 41 sec)
Heartbeat CPU 0 instructions: 50000011 cycles: 33746773 heartbeat IPC: 1.032 cumulative IPC: 1.057 (Simulation time: 00 hr 04 min 56 sec)
Heartbeat CPU 0 instructions: 60000011 cycles: 43067389 heartbeat IPC: 1.073 cumulative IPC: 1.061 (Simulation time: 00 hr 06 min 11 sec)
Heartbeat CPU 0 instructions: 70000014 cycles: 52321889 heartbeat IPC: 1.081 cumulative IPC: 1.065 (Simulation time: 00 hr 07 min 26 sec)
Heartbeat CPU 0 instructions: 80000017 cycles: 61515287 heartbeat IPC: 1.088 cumulative IPC: 1.069 (Simulation time: 00 hr 08 min 38 sec)
*** Reached end of trace: (0, "/home/ho/itp_asplos25_AE/traces/qualcomm_srv/srv375_ap.champsimtrace.xz")
Heartbeat CPU 0 instructions: 90000019 cycles: 70711377 heartbeat IPC: 1.087 cumulative IPC: 1.071 (Simulation time: 00 hr 09 min 55 sec)
Heartbeat CPU 0 instructions: 100000020 cycles: 79823582 heartbeat IPC: 1.097 cumulative IPC: 1.075 (Simulation time: 00 hr 11 min 06 sec)
Heartbeat CPU 0 instructions: 110000022 cycles: 89021175 heartbeat IPC: 1.087 cumulative IPC: 1.076 (Simulation time: 00 hr 12 min 18 sec)
Simulation finished CPU 0 instructions: 100000003 cycles: 92725806 cumulative IPC: 1.078 (Simulation time: 00 hr 13 min 29 sec)
Simulation complete CPU 0 instructions: 100000003 cycles: 92725806 cumulative IPC: 1.078 (Simulation time: 00 hr 13 min 29 sec)

ChampSim completed all CPUs

=== Simulation ===
CPU 0 runs /home/ho/itp_asplos25_AE/traces/qualcomm_srv/srv375_ap.champsimtrace.xz

Region of Interest Statistics

CPU 0 cumulative IPC: 1.078 instructions: 100000003 cycles: 92725806
CPU 0 Branch Prediction Accuracy: 92.34% MPKI: 13.75 Average ROB Occupancy at Mispredict: 30.79
Branch type MPKI
BRANCH_DIRECT_JUMP: 0.05418
BRANCH_INDIRECT: 0.3433
BRANCH_CONDITIONAL: 12.13
BRANCH_DIRECT_CALL: 0.3673
BRANCH_INDIRECT_CALL: 0.4967
BRANCH_RETURN: 0.3618


====Backend Stall Breakdown====
ROB_STALL: 215156
LQ_STALL: 0
SQ_STALL: 1003640


====ROB Stall Breakdown====

== Average ==
ADDR_TRANS: 172.32616
REPLAY_LOAD: 63.648876
NON_REPLAY_LOAD: 22.560495

== Total ==
ADDR_TRANS: 56006
REPLAY_LOAD: 22659
NON_REPLAY_LOAD: 136491

== Counts ==
ADDR_TRANS: 325
REPLAY_LOAD: 356
NON_REPLAY_LOAD: 6050

cpu0->cpu0_STLB TOTAL        ACCESS:    2124199 HIT:    2097374 MISS:      26825 MSHR_MERGE:          0
cpu0->cpu0_STLB LOAD         ACCESS:    2124199 HIT:    2097374 MISS:      26825 MSHR_MERGE:          0
cpu0->cpu0_STLB RFO          ACCESS:          0 HIT:          0 MISS:          0 MSHR_MERGE:          0
cpu0->cpu0_STLB PREFETCH     ACCESS:          0 HIT:          0 MISS:          0 MSHR_MERGE:          0
cpu0->cpu0_STLB WRITE        ACCESS:          0 HIT:          0 MISS:          0 MSHR_MERGE:          0
cpu0->cpu0_STLB TRANSLATION  ACCESS:          0 HIT:          0 MISS:          0 MSHR_MERGE:          0
cpu0->cpu0_STLB PREFETCH REQUESTED:          0 ISSUED:          0 USEFUL:          0 USELESS:          0
cpu0->cpu0_STLB AVERAGE MISS LATENCY: 197.1 cycles
cpu0->cpu0_L2C TOTAL        ACCESS:    9428395 HIT:    8481155 MISS:     947240 MSHR_MERGE:          0
cpu0->cpu0_L2C LOAD         ACCESS:    7638931 HIT:    6869875 MISS:     769056 MSHR_MERGE:          0
cpu0->cpu0_L2C RFO          ACCESS:     594272 HIT:     474511 MISS:     119761 MSHR_MERGE:          0
cpu0->cpu0_L2C PREFETCH     ACCESS:          0 HIT:          0 MISS:          0 MSHR_MERGE:          0
cpu0->cpu0_L2C WRITE        ACCESS:    1133449 HIT:    1122610 MISS:      10839 MSHR_MERGE:          0
cpu0->cpu0_L2C TRANSLATION  ACCESS:      61743 HIT:      14159 MISS:      47584 MSHR_MERGE:          0
cpu0->cpu0_L2C PREFETCH REQUESTED:          0 ISSUED:          0 USEFUL:          0 USELESS:          0
cpu0->cpu0_L2C AVERAGE MISS LATENCY: 38.99 cycles
cpu0->cpu0_L1I TOTAL        ACCESS:   15180439 HIT:    7587769 MISS:    7592670 MSHR_MERGE:    1881160
cpu0->cpu0_L1I LOAD         ACCESS:   15180439 HIT:    7587769 MISS:    7592670 MSHR_MERGE:    1881160
cpu0->cpu0_L1I RFO          ACCESS:          0 HIT:          0 MISS:          0 MSHR_MERGE:          0
cpu0->cpu0_L1I PREFETCH     ACCESS:          0 HIT:          0 MISS:          0 MSHR_MERGE:          0
cpu0->cpu0_L1I WRITE        ACCESS:          0 HIT:          0 MISS:          0 MSHR_MERGE:          0
cpu0->cpu0_L1I TRANSLATION  ACCESS:          0 HIT:          0 MISS:          0 MSHR_MERGE:          0
cpu0->cpu0_L1I PREFETCH REQUESTED:          0 ISSUED:          0 USEFUL:          0 USELESS:          0
cpu0->cpu0_L1I AVERAGE MISS LATENCY: 13.84 cycles
cpu0->cpu0_L1D TOTAL        ACCESS:   29938069 HIT:   25612934 MISS:    4325135 MSHR_MERGE:    1741695
cpu0->cpu0_L1D LOAD         ACCESS:   16550260 HIT:   14091933 MISS:    2458327 MSHR_MERGE:     530904
cpu0->cpu0_L1D RFO          ACCESS:          0 HIT:          0 MISS:          0 MSHR_MERGE:          0
cpu0->cpu0_L1D PREFETCH     ACCESS:          0 HIT:          0 MISS:          0 MSHR_MERGE:          0
cpu0->cpu0_L1D WRITE        ACCESS:   13321076 HIT:   11516147 MISS:    1804929 MSHR_MERGE:    1210655
cpu0->cpu0_L1D TRANSLATION  ACCESS:      66733 HIT:       4854 MISS:      61879 MSHR_MERGE:        136
cpu0->cpu0_L1D PREFETCH REQUESTED:          0 ISSUED:          0 USEFUL:          0 USELESS:          0
cpu0->cpu0_L1D AVERAGE MISS LATENCY: 21.12 cycles
cpu0->cpu0_ITLB TOTAL        ACCESS:   12492145 HIT:   10397604 MISS:    2094541 MSHR_MERGE:    1043310
cpu0->cpu0_ITLB LOAD         ACCESS:   12492145 HIT:   10397604 MISS:    2094541 MSHR_MERGE:    1043310
cpu0->cpu0_ITLB RFO          ACCESS:          0 HIT:          0 MISS:          0 MSHR_MERGE:          0
cpu0->cpu0_ITLB PREFETCH     ACCESS:          0 HIT:          0 MISS:          0 MSHR_MERGE:          0
cpu0->cpu0_ITLB WRITE        ACCESS:          0 HIT:          0 MISS:          0 MSHR_MERGE:          0
cpu0->cpu0_ITLB TRANSLATION  ACCESS:          0 HIT:          0 MISS:          0 MSHR_MERGE:          0
cpu0->cpu0_ITLB PREFETCH REQUESTED:          0 ISSUED:          0 USEFUL:          0 USELESS:          0
cpu0->cpu0_ITLB AVERAGE MISS LATENCY: 5.343 cycles
cpu0->cpu0_DTLB TOTAL        ACCESS:   28438770 HIT:   26992047 MISS:    1446723 MSHR_MERGE:     373755
cpu0->cpu0_DTLB LOAD         ACCESS:   28438770 HIT:   26992047 MISS:    1446723 MSHR_MERGE:     373755
cpu0->cpu0_DTLB RFO          ACCESS:          0 HIT:          0 MISS:          0 MSHR_MERGE:          0
cpu0->cpu0_DTLB PREFETCH     ACCESS:          0 HIT:          0 MISS:          0 MSHR_MERGE:          0
cpu0->cpu0_DTLB WRITE        ACCESS:          0 HIT:          0 MISS:          0 MSHR_MERGE:          0
cpu0->cpu0_DTLB TRANSLATION  ACCESS:          0 HIT:          0 MISS:          0 MSHR_MERGE:          0
cpu0->cpu0_DTLB PREFETCH REQUESTED:          0 ISSUED:          0 USEFUL:          0 USELESS:          0
cpu0->cpu0_DTLB AVERAGE MISS LATENCY: 9.627 cycles
cpu0->LLC TOTAL        ACCESS:    1130634 HIT:    1040198 MISS:      90436 MSHR_MERGE:          0
cpu0->LLC LOAD         ACCESS:     769056 HIT:     706082 MISS:      62974 MSHR_MERGE:          0
cpu0->LLC RFO          ACCESS:     119761 HIT:     110699 MISS:       9062 MSHR_MERGE:          0
cpu0->LLC PREFETCH     ACCESS:          0 HIT:          0 MISS:          0 MSHR_MERGE:          0
cpu0->LLC WRITE        ACCESS:     194233 HIT:     193689 MISS:        544 MSHR_MERGE:          0
cpu0->LLC TRANSLATION  ACCESS:      47584 HIT:      29728 MISS:      17856 MSHR_MERGE:          0
cpu0->LLC PREFETCH REQUESTED:          0 ISSUED:          0 USEFUL:          0 USELESS:          0
cpu0->LLC AVERAGE MISS LATENCY: 100.7 cycles

DRAM Statistics

Channel 0 RQ ROW_BUFFER_HIT:       2374
  ROW_BUFFER_MISS:      87516
  AVG DBUS CONGESTED CYCLE: 4.358
Channel 0 WQ ROW_BUFFER_HIT:        884
  ROW_BUFFER_MISS:       8109
  FULL:          0
Channel 0 REFRESHES ISSUED:       7727
[2025-09-15 21:54:01] END   suite=qualcomm_srv trace=srv375_ap (rc=0)
