[2025-09-15 22:47:58] START suite=qualcomm_srv trace=srv359_ap
CMD: ./bin/champsim -w 20000000 -i 100000000 /home/ho/itp_asplos25_AE/traces/qualcomm_srv/srv359_ap.champsimtrace.xz
[VMEM] WARNING: physical memory size is smaller than virtual memory size.

*** ChampSim Multicore Out-of-Order Simulator ***
Warmup Instructions: 20000000
Simulation Instructions: 100000000
Number of CPUs: 1
Page size: 4096

Off-chip DRAM Size: 16 GiB Channels: 1 Width: 64-bit Data Rate: 3205 MT/s
[BTB] WARNING: target of return is a lower address than the corresponding call. This is usually a problem with your trace.
[BTB] WARNING: target of return is a lower address than the corresponding call. This is usually a problem with your trace.
[BTB] WARNING: target of return is a lower address than the corresponding call. This is usually a problem with your trace.
[BTB] WARNING: target of return is a lower address than the corresponding call. This is usually a problem with your trace.
[BTB] WARNING: target of return is a lower address than the corresponding call. This is usually a problem with your trace.
[BTB] WARNING: target of return is a lower address than the corresponding call. This is usually a problem with your trace.
[BTB] WARNING: target of return is a lower address than the corresponding call. This is usually a problem with your trace.
[BTB] WARNING: target of return is a lower address than the corresponding call. This is usually a problem with your trace.
[BTB] WARNING: target of return is a lower address than the corresponding call. This is usually a problem with your trace.
[BTB] WARNING: target of return is a lower address than the corresponding call. This is usually a problem with your trace.
Heartbeat CPU 0 instructions: 10000001 cycles: 2747473 heartbeat IPC: 3.64 cumulative IPC: 3.64 (Simulation time: 00 hr 00 min 36 sec)
Warmup finished CPU 0 instructions: 20000000 cycles: 5292885 cumulative IPC: 3.779 (Simulation time: 00 hr 01 min 13 sec)
Warmup complete CPU 0 instructions: 20000000 cycles: 5292885 cumulative IPC: 3.779 (Simulation time: 00 hr 01 min 13 sec)
Heartbeat CPU 0 instructions: 20000005 cycles: 5292886 heartbeat IPC: 3.929 cumulative IPC: 5 (Simulation time: 00 hr 01 min 13 sec)
Heartbeat CPU 0 instructions: 30000009 cycles: 15409924 heartbeat IPC: 0.9884 cumulative IPC: 0.9884 (Simulation time: 00 hr 02 min 37 sec)
Heartbeat CPU 0 instructions: 40000011 cycles: 25834090 heartbeat IPC: 0.9593 cumulative IPC: 0.9737 (Simulation time: 00 hr 03 min 58 sec)
Heartbeat CPU 0 instructions: 50000012 cycles: 44425101 heartbeat IPC: 0.5379 cumulative IPC: 0.7666 (Simulation time: 00 hr 06 min 08 sec)
Heartbeat CPU 0 instructions: 60000016 cycles: 60209077 heartbeat IPC: 0.6336 cumulative IPC: 0.7284 (Simulation time: 00 hr 08 min 02 sec)
Heartbeat CPU 0 instructions: 70000020 cycles: 70535210 heartbeat IPC: 0.9684 cumulative IPC: 0.7664 (Simulation time: 00 hr 09 min 20 sec)
Heartbeat CPU 0 instructions: 80000021 cycles: 80315449 heartbeat IPC: 1.022 cumulative IPC: 0.7998 (Simulation time: 00 hr 10 min 41 sec)
Heartbeat CPU 0 instructions: 90000025 cycles: 90893936 heartbeat IPC: 0.9453 cumulative IPC: 0.8177 (Simulation time: 00 hr 11 min 59 sec)
Heartbeat CPU 0 instructions: 100000028 cycles: 101241639 heartbeat IPC: 0.9664 cumulative IPC: 0.8338 (Simulation time: 00 hr 13 min 09 sec)
*** Reached end of trace: (0, "/home/ho/itp_asplos25_AE/traces/qualcomm_srv/srv359_ap.champsimtrace.xz")
Heartbeat CPU 0 instructions: 110000032 cycles: 110621111 heartbeat IPC: 1.066 cumulative IPC: 0.8545 (Simulation time: 00 hr 14 min 25 sec)
Simulation finished CPU 0 instructions: 100000000 cycles: 115364413 cumulative IPC: 0.8668 (Simulation time: 00 hr 15 min 45 sec)
Simulation complete CPU 0 instructions: 100000000 cycles: 115364413 cumulative IPC: 0.8668 (Simulation time: 00 hr 15 min 45 sec)

ChampSim completed all CPUs

=== Simulation ===
CPU 0 runs /home/ho/itp_asplos25_AE/traces/qualcomm_srv/srv359_ap.champsimtrace.xz

Region of Interest Statistics

CPU 0 cumulative IPC: 0.8668 instructions: 100000000 cycles: 115364413
CPU 0 Branch Prediction Accuracy: 94.7% MPKI: 10.16 Average ROB Occupancy at Mispredict: 44.19
Branch type MPKI
BRANCH_DIRECT_JUMP: 0.1542
BRANCH_INDIRECT: 0.1781
BRANCH_CONDITIONAL: 9.201
BRANCH_DIRECT_CALL: 0.2806
BRANCH_INDIRECT_CALL: 0.08729
BRANCH_RETURN: 0.2588


====Backend Stall Breakdown====
ROB_STALL: 1927801
LQ_STALL: 5215899
SQ_STALL: 467033


====ROB Stall Breakdown====

== Average ==
ADDR_TRANS: 226.7497
REPLAY_LOAD: 66.71063
NON_REPLAY_LOAD: 13.746675

== Total ==
ADDR_TRANS: 555310
REPLAY_LOAD: 185122
NON_REPLAY_LOAD: 1187369

== Counts ==
ADDR_TRANS: 2449
REPLAY_LOAD: 2775
NON_REPLAY_LOAD: 86375

cpu0->cpu0_STLB TOTAL        ACCESS:    2598867 HIT:    2446487 MISS:     152380 MSHR_MERGE:          0
cpu0->cpu0_STLB LOAD         ACCESS:    2598867 HIT:    2446487 MISS:     152380 MSHR_MERGE:          0
cpu0->cpu0_STLB RFO          ACCESS:          0 HIT:          0 MISS:          0 MSHR_MERGE:          0
cpu0->cpu0_STLB PREFETCH     ACCESS:          0 HIT:          0 MISS:          0 MSHR_MERGE:          0
cpu0->cpu0_STLB WRITE        ACCESS:          0 HIT:          0 MISS:          0 MSHR_MERGE:          0
cpu0->cpu0_STLB TRANSLATION  ACCESS:          0 HIT:          0 MISS:          0 MSHR_MERGE:          0
cpu0->cpu0_STLB PREFETCH REQUESTED:          0 ISSUED:          0 USEFUL:          0 USELESS:          0
cpu0->cpu0_STLB AVERAGE MISS LATENCY: 136.3 cycles
cpu0->cpu0_L2C TOTAL        ACCESS:    5850993 HIT:    4157272 MISS:    1693721 MSHR_MERGE:          0
cpu0->cpu0_L2C LOAD         ACCESS:    4869583 HIT:    3528978 MISS:    1340605 MSHR_MERGE:          0
cpu0->cpu0_L2C RFO          ACCESS:     175635 HIT:      93381 MISS:      82254 MSHR_MERGE:          0
cpu0->cpu0_L2C PREFETCH     ACCESS:          0 HIT:          0 MISS:          0 MSHR_MERGE:          0
cpu0->cpu0_L2C WRITE        ACCESS:     488697 HIT:     486120 MISS:       2577 MSHR_MERGE:          0
cpu0->cpu0_L2C TRANSLATION  ACCESS:     317078 HIT:      48793 MISS:     268285 MSHR_MERGE:          0
cpu0->cpu0_L2C PREFETCH REQUESTED:          0 ISSUED:          0 USEFUL:          0 USELESS:          0
cpu0->cpu0_L2C AVERAGE MISS LATENCY: 41.05 cycles
cpu0->cpu0_L1I TOTAL        ACCESS:   13625926 HIT:   10542813 MISS:    3083113 MSHR_MERGE:     862983
cpu0->cpu0_L1I LOAD         ACCESS:   13625926 HIT:   10542813 MISS:    3083113 MSHR_MERGE:     862983
cpu0->cpu0_L1I RFO          ACCESS:          0 HIT:          0 MISS:          0 MSHR_MERGE:          0
cpu0->cpu0_L1I PREFETCH     ACCESS:          0 HIT:          0 MISS:          0 MSHR_MERGE:          0
cpu0->cpu0_L1I WRITE        ACCESS:          0 HIT:          0 MISS:          0 MSHR_MERGE:          0
cpu0->cpu0_L1I TRANSLATION  ACCESS:          0 HIT:          0 MISS:          0 MSHR_MERGE:          0
cpu0->cpu0_L1I PREFETCH REQUESTED:          0 ISSUED:          0 USEFUL:          0 USELESS:          0
cpu0->cpu0_L1I AVERAGE MISS LATENCY: 24.16 cycles
cpu0->cpu0_L1D TOTAL        ACCESS:   26574959 HIT:   22825441 MISS:    3749518 MSHR_MERGE:     607351
cpu0->cpu0_L1D LOAD         ACCESS:   16552056 HIT:   13561893 MISS:    2990163 MSHR_MERGE:     340710
cpu0->cpu0_L1D RFO          ACCESS:          0 HIT:          0 MISS:          0 MSHR_MERGE:          0
cpu0->cpu0_L1D PREFETCH     ACCESS:          0 HIT:          0 MISS:          0 MSHR_MERGE:          0
cpu0->cpu0_L1D WRITE        ACCESS:    9672733 HIT:    9233406 MISS:     439327 MSHR_MERGE:     263691
cpu0->cpu0_L1D TRANSLATION  ACCESS:     350170 HIT:      30142 MISS:     320028 MSHR_MERGE:       2950
cpu0->cpu0_L1D PREFETCH REQUESTED:          0 ISSUED:          0 USEFUL:          0 USELESS:          0
cpu0->cpu0_L1D AVERAGE MISS LATENCY: 25.49 cycles
cpu0->cpu0_ITLB TOTAL        ACCESS:   11226691 HIT:   10528682 MISS:     698009 MSHR_MERGE:     362556
cpu0->cpu0_ITLB LOAD         ACCESS:   11226691 HIT:   10528682 MISS:     698009 MSHR_MERGE:     362556
cpu0->cpu0_ITLB RFO          ACCESS:          0 HIT:          0 MISS:          0 MSHR_MERGE:          0
cpu0->cpu0_ITLB PREFETCH     ACCESS:          0 HIT:          0 MISS:          0 MSHR_MERGE:          0
cpu0->cpu0_ITLB WRITE        ACCESS:          0 HIT:          0 MISS:          0 MSHR_MERGE:          0
cpu0->cpu0_ITLB TRANSLATION  ACCESS:          0 HIT:          0 MISS:          0 MSHR_MERGE:          0
cpu0->cpu0_ITLB PREFETCH REQUESTED:          0 ISSUED:          0 USEFUL:          0 USELESS:          0
cpu0->cpu0_ITLB AVERAGE MISS LATENCY: 22.43 cycles
cpu0->cpu0_DTLB TOTAL        ACCESS:   25151964 HIT:   21937194 MISS:    3214770 MSHR_MERGE:     951356
cpu0->cpu0_DTLB LOAD         ACCESS:   25151964 HIT:   21937194 MISS:    3214770 MSHR_MERGE:     951356
cpu0->cpu0_DTLB RFO          ACCESS:          0 HIT:          0 MISS:          0 MSHR_MERGE:          0
cpu0->cpu0_DTLB PREFETCH     ACCESS:          0 HIT:          0 MISS:          0 MSHR_MERGE:          0
cpu0->cpu0_DTLB WRITE        ACCESS:          0 HIT:          0 MISS:          0 MSHR_MERGE:          0
cpu0->cpu0_DTLB TRANSLATION  ACCESS:          0 HIT:          0 MISS:          0 MSHR_MERGE:          0
cpu0->cpu0_DTLB PREFETCH REQUESTED:          0 ISSUED:          0 USEFUL:          0 USELESS:          0
cpu0->cpu0_DTLB AVERAGE MISS LATENCY: 11.66 cycles
cpu0->LLC TOTAL        ACCESS:    1947037 HIT:    1741638 MISS:     205399 MSHR_MERGE:          0
cpu0->LLC LOAD         ACCESS:    1340605 HIT:    1198861 MISS:     141744 MSHR_MERGE:          0
cpu0->LLC RFO          ACCESS:      82254 HIT:      60281 MISS:      21973 MSHR_MERGE:          0
cpu0->LLC PREFETCH     ACCESS:          0 HIT:          0 MISS:          0 MSHR_MERGE:          0
cpu0->LLC WRITE        ACCESS:     255893 HIT:     255648 MISS:        245 MSHR_MERGE:          0
cpu0->LLC TRANSLATION  ACCESS:     268285 HIT:     226848 MISS:      41437 MSHR_MERGE:          0
cpu0->LLC PREFETCH REQUESTED:          0 ISSUED:          0 USEFUL:          0 USELESS:          0
cpu0->LLC AVERAGE MISS LATENCY: 92.36 cycles

DRAM Statistics

Channel 0 RQ ROW_BUFFER_HIT:       4162
  ROW_BUFFER_MISS:     200992
  AVG DBUS CONGESTED CYCLE: 7.665
Channel 0 WQ ROW_BUFFER_HIT:      15222
  ROW_BUFFER_MISS:      85267
  FULL:          0
Channel 0 REFRESHES ISSUED:       9613
[2025-09-15 23:03:43] END   suite=qualcomm_srv trace=srv359_ap (rc=0)
