[2025-09-15 23:39:28] START suite=qualcomm_srv trace=srv471_ap
CMD: ./bin/champsim -w 20000000 -i 100000000 /home/ho/itp_asplos25_AE/traces/qualcomm_srv/srv471_ap.champsimtrace.xz
[VMEM] WARNING: physical memory size is smaller than virtual memory size.

*** ChampSim Multicore Out-of-Order Simulator ***
Warmup Instructions: 20000000
Simulation Instructions: 100000000
Number of CPUs: 1
Page size: 4096

Off-chip DRAM Size: 16 GiB Channels: 1 Width: 64-bit Data Rate: 3205 MT/s
[BTB] WARNING: target of return is a lower address than the corresponding call. This is usually a problem with your trace.
[BTB] WARNING: target of return is a lower address than the corresponding call. This is usually a problem with your trace.
[BTB] WARNING: target of return is a lower address than the corresponding call. This is usually a problem with your trace.
[BTB] WARNING: target of return is a lower address than the corresponding call. This is usually a problem with your trace.
[BTB] WARNING: target of return is a lower address than the corresponding call. This is usually a problem with your trace.
[BTB] WARNING: target of return is a lower address than the corresponding call. This is usually a problem with your trace.
[BTB] WARNING: target of return is a lower address than the corresponding call. This is usually a problem with your trace.
[BTB] WARNING: target of return is a lower address than the corresponding call. This is usually a problem with your trace.
[BTB] WARNING: target of return is a lower address than the corresponding call. This is usually a problem with your trace.
[BTB] WARNING: target of return is a lower address than the corresponding call. This is usually a problem with your trace.
Heartbeat CPU 0 instructions: 10000002 cycles: 2640326 heartbeat IPC: 3.787 cumulative IPC: 3.787 (Simulation time: 00 hr 00 min 39 sec)
Warmup finished CPU 0 instructions: 20000001 cycles: 5051308 cumulative IPC: 3.959 (Simulation time: 00 hr 01 min 15 sec)
Warmup complete CPU 0 instructions: 20000001 cycles: 5051308 cumulative IPC: 3.959 (Simulation time: 00 hr 01 min 15 sec)
Heartbeat CPU 0 instructions: 20000006 cycles: 5051309 heartbeat IPC: 4.148 cumulative IPC: 5 (Simulation time: 00 hr 01 min 15 sec)
Heartbeat CPU 0 instructions: 30000006 cycles: 13774940 heartbeat IPC: 1.146 cumulative IPC: 1.146 (Simulation time: 00 hr 02 min 22 sec)
Heartbeat CPU 0 instructions: 40000009 cycles: 22406686 heartbeat IPC: 1.159 cumulative IPC: 1.152 (Simulation time: 00 hr 03 min 32 sec)
Heartbeat CPU 0 instructions: 50000011 cycles: 31047647 heartbeat IPC: 1.157 cumulative IPC: 1.154 (Simulation time: 00 hr 04 min 46 sec)
Heartbeat CPU 0 instructions: 60000012 cycles: 39644176 heartbeat IPC: 1.163 cumulative IPC: 1.156 (Simulation time: 00 hr 05 min 55 sec)
Heartbeat CPU 0 instructions: 70000015 cycles: 48236167 heartbeat IPC: 1.164 cumulative IPC: 1.158 (Simulation time: 00 hr 06 min 59 sec)
Heartbeat CPU 0 instructions: 80000018 cycles: 56502403 heartbeat IPC: 1.21 cumulative IPC: 1.166 (Simulation time: 00 hr 08 min 03 sec)
Heartbeat CPU 0 instructions: 90000018 cycles: 65186757 heartbeat IPC: 1.151 cumulative IPC: 1.164 (Simulation time: 00 hr 09 min 12 sec)
Heartbeat CPU 0 instructions: 100000021 cycles: 73549871 heartbeat IPC: 1.196 cumulative IPC: 1.168 (Simulation time: 00 hr 10 min 22 sec)
*** Reached end of trace: (0, "/home/ho/itp_asplos25_AE/traces/qualcomm_srv/srv471_ap.champsimtrace.xz")
Heartbeat CPU 0 instructions: 110000024 cycles: 82057513 heartbeat IPC: 1.175 cumulative IPC: 1.169 (Simulation time: 00 hr 11 min 28 sec)
Simulation finished CPU 0 instructions: 100000000 cycles: 85527220 cumulative IPC: 1.169 (Simulation time: 00 hr 12 min 38 sec)
Simulation complete CPU 0 instructions: 100000000 cycles: 85527220 cumulative IPC: 1.169 (Simulation time: 00 hr 12 min 38 sec)

ChampSim completed all CPUs

=== Simulation ===
CPU 0 runs /home/ho/itp_asplos25_AE/traces/qualcomm_srv/srv471_ap.champsimtrace.xz

Region of Interest Statistics

CPU 0 cumulative IPC: 1.169 instructions: 100000000 cycles: 85527220
CPU 0 Branch Prediction Accuracy: 91.58% MPKI: 14.85 Average ROB Occupancy at Mispredict: 28.13
Branch type MPKI
BRANCH_DIRECT_JUMP: 0.2779
BRANCH_INDIRECT: 0.4172
BRANCH_CONDITIONAL: 12.5
BRANCH_DIRECT_CALL: 0.6971
BRANCH_INDIRECT_CALL: 0.5097
BRANCH_RETURN: 0.4492


====Backend Stall Breakdown====
ROB_STALL: 194767
LQ_STALL: 0
SQ_STALL: 601399


====ROB Stall Breakdown====

== Average ==
ADDR_TRANS: 139.10909
REPLAY_LOAD: 65.33146
NON_REPLAY_LOAD: 15.187731

== Total ==
ADDR_TRANS: 22953
REPLAY_LOAD: 11629
NON_REPLAY_LOAD: 160185

== Counts ==
ADDR_TRANS: 165
REPLAY_LOAD: 178
NON_REPLAY_LOAD: 10547

cpu0->cpu0_STLB TOTAL        ACCESS:    1758307 HIT:    1752767 MISS:       5540 MSHR_MERGE:          0
cpu0->cpu0_STLB LOAD         ACCESS:    1758307 HIT:    1752767 MISS:       5540 MSHR_MERGE:          0
cpu0->cpu0_STLB RFO          ACCESS:          0 HIT:          0 MISS:          0 MSHR_MERGE:          0
cpu0->cpu0_STLB PREFETCH     ACCESS:          0 HIT:          0 MISS:          0 MSHR_MERGE:          0
cpu0->cpu0_STLB WRITE        ACCESS:          0 HIT:          0 MISS:          0 MSHR_MERGE:          0
cpu0->cpu0_STLB TRANSLATION  ACCESS:          0 HIT:          0 MISS:          0 MSHR_MERGE:          0
cpu0->cpu0_STLB PREFETCH REQUESTED:          0 ISSUED:          0 USEFUL:          0 USELESS:          0
cpu0->cpu0_STLB AVERAGE MISS LATENCY: 209.9 cycles
cpu0->cpu0_L2C TOTAL        ACCESS:    7657170 HIT:    6683895 MISS:     973275 MSHR_MERGE:          0
cpu0->cpu0_L2C LOAD         ACCESS:    6210249 HIT:    5405058 MISS:     805191 MSHR_MERGE:          0
cpu0->cpu0_L2C RFO          ACCESS:     532459 HIT:     388672 MISS:     143787 MSHR_MERGE:          0
cpu0->cpu0_L2C PREFETCH     ACCESS:          0 HIT:          0 MISS:          0 MSHR_MERGE:          0
cpu0->cpu0_L2C WRITE        ACCESS:     904452 HIT:     888977 MISS:      15475 MSHR_MERGE:          0
cpu0->cpu0_L2C TRANSLATION  ACCESS:      10010 HIT:       1188 MISS:       8822 MSHR_MERGE:          0
cpu0->cpu0_L2C PREFETCH REQUESTED:          0 ISSUED:          0 USEFUL:          0 USELESS:          0
cpu0->cpu0_L2C AVERAGE MISS LATENCY: 38.21 cycles
cpu0->cpu0_L1I TOTAL        ACCESS:   14451803 HIT:    8099040 MISS:    6352763 MSHR_MERGE:    1533039
cpu0->cpu0_L1I LOAD         ACCESS:   14451803 HIT:    8099040 MISS:    6352763 MSHR_MERGE:    1533039
cpu0->cpu0_L1I RFO          ACCESS:          0 HIT:          0 MISS:          0 MSHR_MERGE:          0
cpu0->cpu0_L1I PREFETCH     ACCESS:          0 HIT:          0 MISS:          0 MSHR_MERGE:          0
cpu0->cpu0_L1I WRITE        ACCESS:          0 HIT:          0 MISS:          0 MSHR_MERGE:          0
cpu0->cpu0_L1I TRANSLATION  ACCESS:          0 HIT:          0 MISS:          0 MSHR_MERGE:          0
cpu0->cpu0_L1I PREFETCH REQUESTED:          0 ISSUED:          0 USEFUL:          0 USELESS:          0
cpu0->cpu0_L1I AVERAGE MISS LATENCY: 14.65 cycles
cpu0->cpu0_L1D TOTAL        ACCESS:   29899872 HIT:   26588167 MISS:    3311705 MSHR_MERGE:    1378671
cpu0->cpu0_L1D LOAD         ACCESS:   16872512 HIT:   15142046 MISS:    1730466 MSHR_MERGE:     339919
cpu0->cpu0_L1D RFO          ACCESS:          0 HIT:          0 MISS:          0 MSHR_MERGE:          0
cpu0->cpu0_L1D PREFETCH     ACCESS:          0 HIT:          0 MISS:          0 MSHR_MERGE:          0
cpu0->cpu0_L1D WRITE        ACCESS:   13015894 HIT:   11444687 MISS:    1571207 MSHR_MERGE:    1038730
cpu0->cpu0_L1D TRANSLATION  ACCESS:      11466 HIT:       1434 MISS:      10032 MSHR_MERGE:         22
cpu0->cpu0_L1D PREFETCH REQUESTED:          0 ISSUED:          0 USEFUL:          0 USELESS:          0
cpu0->cpu0_L1D AVERAGE MISS LATENCY: 23.57 cycles
cpu0->cpu0_ITLB TOTAL        ACCESS:   12087065 HIT:   10363116 MISS:    1723949 MSHR_MERGE:     868431
cpu0->cpu0_ITLB LOAD         ACCESS:   12087065 HIT:   10363116 MISS:    1723949 MSHR_MERGE:     868431
cpu0->cpu0_ITLB RFO          ACCESS:          0 HIT:          0 MISS:          0 MSHR_MERGE:          0
cpu0->cpu0_ITLB PREFETCH     ACCESS:          0 HIT:          0 MISS:          0 MSHR_MERGE:          0
cpu0->cpu0_ITLB WRITE        ACCESS:          0 HIT:          0 MISS:          0 MSHR_MERGE:          0
cpu0->cpu0_ITLB TRANSLATION  ACCESS:          0 HIT:          0 MISS:          0 MSHR_MERGE:          0
cpu0->cpu0_ITLB PREFETCH REQUESTED:          0 ISSUED:          0 USEFUL:          0 USELESS:          0
cpu0->cpu0_ITLB AVERAGE MISS LATENCY: 5.113 cycles
cpu0->cpu0_DTLB TOTAL        ACCESS:   28276470 HIT:   27074091 MISS:    1202379 MSHR_MERGE:     299590
cpu0->cpu0_DTLB LOAD         ACCESS:   28276470 HIT:   27074091 MISS:    1202379 MSHR_MERGE:     299590
cpu0->cpu0_DTLB RFO          ACCESS:          0 HIT:          0 MISS:          0 MSHR_MERGE:          0
cpu0->cpu0_DTLB PREFETCH     ACCESS:          0 HIT:          0 MISS:          0 MSHR_MERGE:          0
cpu0->cpu0_DTLB WRITE        ACCESS:          0 HIT:          0 MISS:          0 MSHR_MERGE:          0
cpu0->cpu0_DTLB TRANSLATION  ACCESS:          0 HIT:          0 MISS:          0 MSHR_MERGE:          0
cpu0->cpu0_DTLB PREFETCH REQUESTED:          0 ISSUED:          0 USEFUL:          0 USELESS:          0
cpu0->cpu0_DTLB AVERAGE MISS LATENCY: 6.204 cycles
cpu0->LLC TOTAL        ACCESS:    1172633 HIT:    1102252 MISS:      70381 MSHR_MERGE:          0
cpu0->LLC LOAD         ACCESS:     805191 HIT:     779107 MISS:      26084 MSHR_MERGE:          0
cpu0->LLC RFO          ACCESS:     143787 HIT:     104009 MISS:      39778 MSHR_MERGE:          0
cpu0->LLC PREFETCH     ACCESS:          0 HIT:          0 MISS:          0 MSHR_MERGE:          0
cpu0->LLC WRITE        ACCESS:     214833 HIT:     214561 MISS:        272 MSHR_MERGE:          0
cpu0->LLC TRANSLATION  ACCESS:       8822 HIT:       4575 MISS:       4247 MSHR_MERGE:          0
cpu0->LLC PREFETCH REQUESTED:          0 ISSUED:          0 USEFUL:          0 USELESS:          0
cpu0->LLC AVERAGE MISS LATENCY: 119.6 cycles

DRAM Statistics

Channel 0 RQ ROW_BUFFER_HIT:       4383
  ROW_BUFFER_MISS:      65722
  AVG DBUS CONGESTED CYCLE: 3.453
Channel 0 WQ ROW_BUFFER_HIT:       1378
  ROW_BUFFER_MISS:      34449
  FULL:          0
Channel 0 REFRESHES ISSUED:       7128
[2025-09-15 23:52:06] END   suite=qualcomm_srv trace=srv471_ap (rc=0)
