[2025-09-15 21:20:40] START suite=qualcomm_srv trace=srv592_ap
CMD: ./bin/champsim -w 20000000 -i 100000000 /home/ho/itp_asplos25_AE/traces/qualcomm_srv/srv592_ap.champsimtrace.xz
[VMEM] WARNING: physical memory size is smaller than virtual memory size.

*** ChampSim Multicore Out-of-Order Simulator ***
Warmup Instructions: 20000000
Simulation Instructions: 100000000
Number of CPUs: 1
Page size: 4096

Off-chip DRAM Size: 16 GiB Channels: 1 Width: 64-bit Data Rate: 3205 MT/s
[BTB] WARNING: target of return is a lower address than the corresponding call. This is usually a problem with your trace.
[BTB] WARNING: target of return is a lower address than the corresponding call. This is usually a problem with your trace.
[BTB] WARNING: target of return is a lower address than the corresponding call. This is usually a problem with your trace.
[BTB] WARNING: target of return is a lower address than the corresponding call. This is usually a problem with your trace.
[BTB] WARNING: target of return is a lower address than the corresponding call. This is usually a problem with your trace.
[BTB] WARNING: target of return is a lower address than the corresponding call. This is usually a problem with your trace.
[BTB] WARNING: target of return is a lower address than the corresponding call. This is usually a problem with your trace.
[BTB] WARNING: target of return is a lower address than the corresponding call. This is usually a problem with your trace.
[BTB] WARNING: target of return is a lower address than the corresponding call. This is usually a problem with your trace.
[BTB] WARNING: target of return is a lower address than the corresponding call. This is usually a problem with your trace.
Heartbeat CPU 0 instructions: 10000000 cycles: 2572652 heartbeat IPC: 3.887 cumulative IPC: 3.887 (Simulation time: 00 hr 00 min 37 sec)
Heartbeat CPU 0 instructions: 20000001 cycles: 4994525 heartbeat IPC: 4.129 cumulative IPC: 4.004 (Simulation time: 00 hr 01 min 11 sec)
Warmup finished CPU 0 instructions: 20000001 cycles: 4994525 cumulative IPC: 4.004 (Simulation time: 00 hr 01 min 11 sec)
Warmup complete CPU 0 instructions: 20000001 cycles: 4994525 cumulative IPC: 4.004 (Simulation time: 00 hr 01 min 11 sec)
Heartbeat CPU 0 instructions: 30000004 cycles: 13031810 heartbeat IPC: 1.244 cumulative IPC: 1.244 (Simulation time: 00 hr 02 min 12 sec)
Heartbeat CPU 0 instructions: 40000004 cycles: 21061795 heartbeat IPC: 1.245 cumulative IPC: 1.245 (Simulation time: 00 hr 03 min 22 sec)
Heartbeat CPU 0 instructions: 50000004 cycles: 29105522 heartbeat IPC: 1.243 cumulative IPC: 1.244 (Simulation time: 00 hr 04 min 31 sec)
Heartbeat CPU 0 instructions: 60000007 cycles: 37119437 heartbeat IPC: 1.248 cumulative IPC: 1.245 (Simulation time: 00 hr 05 min 31 sec)
Heartbeat CPU 0 instructions: 70000007 cycles: 45180899 heartbeat IPC: 1.24 cumulative IPC: 1.244 (Simulation time: 00 hr 06 min 31 sec)
Heartbeat CPU 0 instructions: 80000007 cycles: 53236104 heartbeat IPC: 1.241 cumulative IPC: 1.244 (Simulation time: 00 hr 07 min 40 sec)
*** Reached end of trace: (0, "/home/ho/itp_asplos25_AE/traces/qualcomm_srv/srv592_ap.champsimtrace.xz")
Heartbeat CPU 0 instructions: 90000008 cycles: 61358800 heartbeat IPC: 1.231 cumulative IPC: 1.242 (Simulation time: 00 hr 08 min 48 sec)
Heartbeat CPU 0 instructions: 100000008 cycles: 69513059 heartbeat IPC: 1.226 cumulative IPC: 1.24 (Simulation time: 00 hr 09 min 54 sec)
Heartbeat CPU 0 instructions: 110000009 cycles: 77686328 heartbeat IPC: 1.224 cumulative IPC: 1.238 (Simulation time: 00 hr 10 min 54 sec)
Simulation finished CPU 0 instructions: 100000003 cycles: 80858046 cumulative IPC: 1.237 (Simulation time: 00 hr 11 min 54 sec)
Simulation complete CPU 0 instructions: 100000003 cycles: 80858046 cumulative IPC: 1.237 (Simulation time: 00 hr 11 min 54 sec)

ChampSim completed all CPUs

=== Simulation ===
CPU 0 runs /home/ho/itp_asplos25_AE/traces/qualcomm_srv/srv592_ap.champsimtrace.xz

Region of Interest Statistics

CPU 0 cumulative IPC: 1.237 instructions: 100000003 cycles: 80858046
CPU 0 Branch Prediction Accuracy: 92.67% MPKI: 13.02 Average ROB Occupancy at Mispredict: 31.17
Branch type MPKI
BRANCH_DIRECT_JUMP: 0.08483
BRANCH_INDIRECT: 0.3688
BRANCH_CONDITIONAL: 11.2
BRANCH_DIRECT_CALL: 0.4177
BRANCH_INDIRECT_CALL: 0.5417
BRANCH_RETURN: 0.4031


====Backend Stall Breakdown====
ROB_STALL: 25814
LQ_STALL: 0
SQ_STALL: 60460


====ROB Stall Breakdown====

== Average ==
ADDR_TRANS: -nan
REPLAY_LOAD: -nan
NON_REPLAY_LOAD: 6.8837333

== Total ==
ADDR_TRANS: 0
REPLAY_LOAD: 0
NON_REPLAY_LOAD: 25814

== Counts ==
ADDR_TRANS: 0
REPLAY_LOAD: 0
NON_REPLAY_LOAD: 3750

cpu0->cpu0_STLB TOTAL        ACCESS:    2103980 HIT:    2103321 MISS:        659 MSHR_MERGE:          0
cpu0->cpu0_STLB LOAD         ACCESS:    2103980 HIT:    2103321 MISS:        659 MSHR_MERGE:          0
cpu0->cpu0_STLB RFO          ACCESS:          0 HIT:          0 MISS:          0 MSHR_MERGE:          0
cpu0->cpu0_STLB PREFETCH     ACCESS:          0 HIT:          0 MISS:          0 MSHR_MERGE:          0
cpu0->cpu0_STLB WRITE        ACCESS:          0 HIT:          0 MISS:          0 MSHR_MERGE:          0
cpu0->cpu0_STLB TRANSLATION  ACCESS:          0 HIT:          0 MISS:          0 MSHR_MERGE:          0
cpu0->cpu0_STLB PREFETCH REQUESTED:          0 ISSUED:          0 USEFUL:          0 USELESS:          0
cpu0->cpu0_STLB AVERAGE MISS LATENCY: 124.5 cycles
cpu0->cpu0_L2C TOTAL        ACCESS:    9387050 HIT:    8829194 MISS:     557856 MSHR_MERGE:          0
cpu0->cpu0_L2C LOAD         ACCESS:    7674200 HIT:    7194932 MISS:     479268 MSHR_MERGE:          0
cpu0->cpu0_L2C RFO          ACCESS:     576035 HIT:     517228 MISS:      58807 MSHR_MERGE:          0
cpu0->cpu0_L2C PREFETCH     ACCESS:          0 HIT:          0 MISS:          0 MSHR_MERGE:          0
cpu0->cpu0_L2C WRITE        ACCESS:    1135640 HIT:    1116643 MISS:      18997 MSHR_MERGE:          0
cpu0->cpu0_L2C TRANSLATION  ACCESS:       1175 HIT:        391 MISS:        784 MSHR_MERGE:          0
cpu0->cpu0_L2C PREFETCH REQUESTED:          0 ISSUED:          0 USEFUL:          0 USELESS:          0
cpu0->cpu0_L2C AVERAGE MISS LATENCY: 30.98 cycles
cpu0->cpu0_L1I TOTAL        ACCESS:   15849511 HIT:    7788477 MISS:    8061034 MSHR_MERGE:    2002343
cpu0->cpu0_L1I LOAD         ACCESS:   15849511 HIT:    7788477 MISS:    8061034 MSHR_MERGE:    2002343
cpu0->cpu0_L1I RFO          ACCESS:          0 HIT:          0 MISS:          0 MSHR_MERGE:          0
cpu0->cpu0_L1I PREFETCH     ACCESS:          0 HIT:          0 MISS:          0 MSHR_MERGE:          0
cpu0->cpu0_L1I WRITE        ACCESS:          0 HIT:          0 MISS:          0 MSHR_MERGE:          0
cpu0->cpu0_L1I TRANSLATION  ACCESS:          0 HIT:          0 MISS:          0 MSHR_MERGE:          0
cpu0->cpu0_L1I PREFETCH REQUESTED:          0 ISSUED:          0 USEFUL:          0 USELESS:          0
cpu0->cpu0_L1I AVERAGE MISS LATENCY: 12.92 cycles
cpu0->cpu0_L1D TOTAL        ACCESS:   30411540 HIT:   26530136 MISS:    3881404 MSHR_MERGE:    1688682
cpu0->cpu0_L1D LOAD         ACCESS:   16574375 HIT:   14465351 MISS:    2109024 MSHR_MERGE:     493514
cpu0->cpu0_L1D RFO          ACCESS:          0 HIT:          0 MISS:          0 MSHR_MERGE:          0
cpu0->cpu0_L1D PREFETCH     ACCESS:          0 HIT:          0 MISS:          0 MSHR_MERGE:          0
cpu0->cpu0_L1D WRITE        ACCESS:   13835840 HIT:   12064676 MISS:    1771164 MSHR_MERGE:    1195127
cpu0->cpu0_L1D TRANSLATION  ACCESS:       1325 HIT:        109 MISS:       1216 MSHR_MERGE:         41
cpu0->cpu0_L1D PREFETCH REQUESTED:          0 ISSUED:          0 USEFUL:          0 USELESS:          0
cpu0->cpu0_L1D AVERAGE MISS LATENCY: 15.69 cycles
cpu0->cpu0_ITLB TOTAL        ACCESS:   12990208 HIT:   10721806 MISS:    2268402 MSHR_MERGE:    1144552
cpu0->cpu0_ITLB LOAD         ACCESS:   12990208 HIT:   10721806 MISS:    2268402 MSHR_MERGE:    1144552
cpu0->cpu0_ITLB RFO          ACCESS:          0 HIT:          0 MISS:          0 MSHR_MERGE:          0
cpu0->cpu0_ITLB PREFETCH     ACCESS:          0 HIT:          0 MISS:          0 MSHR_MERGE:          0
cpu0->cpu0_ITLB WRITE        ACCESS:          0 HIT:          0 MISS:          0 MSHR_MERGE:          0
cpu0->cpu0_ITLB TRANSLATION  ACCESS:          0 HIT:          0 MISS:          0 MSHR_MERGE:          0
cpu0->cpu0_ITLB PREFETCH REQUESTED:          0 ISSUED:          0 USEFUL:          0 USELESS:          0
cpu0->cpu0_ITLB AVERAGE MISS LATENCY: 5.011 cycles
cpu0->cpu0_DTLB TOTAL        ACCESS:   28854979 HIT:   27533372 MISS:    1321607 MSHR_MERGE:     341477
cpu0->cpu0_DTLB LOAD         ACCESS:   28854979 HIT:   27533372 MISS:    1321607 MSHR_MERGE:     341477
cpu0->cpu0_DTLB RFO          ACCESS:          0 HIT:          0 MISS:          0 MSHR_MERGE:          0
cpu0->cpu0_DTLB PREFETCH     ACCESS:          0 HIT:          0 MISS:          0 MSHR_MERGE:          0
cpu0->cpu0_DTLB WRITE        ACCESS:          0 HIT:          0 MISS:          0 MSHR_MERGE:          0
cpu0->cpu0_DTLB TRANSLATION  ACCESS:          0 HIT:          0 MISS:          0 MSHR_MERGE:          0
cpu0->cpu0_DTLB PREFETCH REQUESTED:          0 ISSUED:          0 USEFUL:          0 USELESS:          0
cpu0->cpu0_DTLB AVERAGE MISS LATENCY: 5.086 cycles
cpu0->LLC TOTAL        ACCESS:     646903 HIT:     637332 MISS:       9571 MSHR_MERGE:          0
cpu0->LLC LOAD         ACCESS:     479268 HIT:     469889 MISS:       9379 MSHR_MERGE:          0
cpu0->LLC RFO          ACCESS:      58807 HIT:      58806 MISS:          1 MSHR_MERGE:          0
cpu0->LLC PREFETCH     ACCESS:          0 HIT:          0 MISS:          0 MSHR_MERGE:          0
cpu0->LLC WRITE        ACCESS:     108044 HIT:     108034 MISS:         10 MSHR_MERGE:          0
cpu0->LLC TRANSLATION  ACCESS:        784 HIT:        603 MISS:        181 MSHR_MERGE:          0
cpu0->LLC PREFETCH REQUESTED:          0 ISSUED:          0 USEFUL:          0 USELESS:          0
cpu0->LLC AVERAGE MISS LATENCY: 115.6 cycles

DRAM Statistics

Channel 0 RQ ROW_BUFFER_HIT:         13
  ROW_BUFFER_MISS:       9548
  AVG DBUS CONGESTED CYCLE: 2.995
Channel 0 WQ ROW_BUFFER_HIT:          0
  ROW_BUFFER_MISS:         11
  FULL:          0
Channel 0 REFRESHES ISSUED:       6738
[2025-09-15 21:32:34] END   suite=qualcomm_srv trace=srv592_ap (rc=0)
