[2025-09-15 21:29:43] START suite=qualcomm_srv trace=srv630_ap
CMD: ./bin/champsim -w 20000000 -i 100000000 /home/ho/itp_asplos25_AE/traces/qualcomm_srv/srv630_ap.champsimtrace.xz
[VMEM] WARNING: physical memory size is smaller than virtual memory size.

*** ChampSim Multicore Out-of-Order Simulator ***
Warmup Instructions: 20000000
Simulation Instructions: 100000000
Number of CPUs: 1
Page size: 4096

Off-chip DRAM Size: 16 GiB Channels: 1 Width: 64-bit Data Rate: 3205 MT/s
Heartbeat CPU 0 instructions: 10000002 cycles: 2489268 heartbeat IPC: 4.017 cumulative IPC: 4.017 (Simulation time: 00 hr 00 min 36 sec)
[BTB] WARNING: target of return is a lower address than the corresponding call. This is usually a problem with your trace.
[BTB] WARNING: target of return is a lower address than the corresponding call. This is usually a problem with your trace.
[BTB] WARNING: target of return is a lower address than the corresponding call. This is usually a problem with your trace.
[BTB] WARNING: target of return is a lower address than the corresponding call. This is usually a problem with your trace.
[BTB] WARNING: target of return is a lower address than the corresponding call. This is usually a problem with your trace.
[BTB] WARNING: target of return is a lower address than the corresponding call. This is usually a problem with your trace.
[BTB] WARNING: target of return is a lower address than the corresponding call. This is usually a problem with your trace.
[BTB] WARNING: target of return is a lower address than the corresponding call. This is usually a problem with your trace.
[BTB] WARNING: target of return is a lower address than the corresponding call. This is usually a problem with your trace.
[BTB] WARNING: target of return is a lower address than the corresponding call. This is usually a problem with your trace.
Heartbeat CPU 0 instructions: 20000004 cycles: 4930561 heartbeat IPC: 4.096 cumulative IPC: 4.056 (Simulation time: 00 hr 01 min 11 sec)
Warmup finished CPU 0 instructions: 20000004 cycles: 4930561 cumulative IPC: 4.056 (Simulation time: 00 hr 01 min 11 sec)
Warmup complete CPU 0 instructions: 20000004 cycles: 4930561 cumulative IPC: 4.056 (Simulation time: 00 hr 01 min 11 sec)
Heartbeat CPU 0 instructions: 30000006 cycles: 11754404 heartbeat IPC: 1.465 cumulative IPC: 1.465 (Simulation time: 00 hr 02 min 11 sec)
Heartbeat CPU 0 instructions: 40000006 cycles: 18504210 heartbeat IPC: 1.482 cumulative IPC: 1.473 (Simulation time: 00 hr 03 min 14 sec)
Heartbeat CPU 0 instructions: 50000010 cycles: 25160544 heartbeat IPC: 1.502 cumulative IPC: 1.483 (Simulation time: 00 hr 04 min 12 sec)
Heartbeat CPU 0 instructions: 60000010 cycles: 31694135 heartbeat IPC: 1.531 cumulative IPC: 1.495 (Simulation time: 00 hr 05 min 12 sec)
Heartbeat CPU 0 instructions: 70000013 cycles: 38378107 heartbeat IPC: 1.496 cumulative IPC: 1.495 (Simulation time: 00 hr 06 min 13 sec)
Heartbeat CPU 0 instructions: 80000014 cycles: 45042973 heartbeat IPC: 1.5 cumulative IPC: 1.496 (Simulation time: 00 hr 07 min 12 sec)
Heartbeat CPU 0 instructions: 90000018 cycles: 51707597 heartbeat IPC: 1.5 cumulative IPC: 1.496 (Simulation time: 00 hr 08 min 10 sec)
Heartbeat CPU 0 instructions: 100000019 cycles: 58353492 heartbeat IPC: 1.505 cumulative IPC: 1.497 (Simulation time: 00 hr 09 min 10 sec)
*** Reached end of trace: (0, "/home/ho/itp_asplos25_AE/traces/qualcomm_srv/srv630_ap.champsimtrace.xz")
Heartbeat CPU 0 instructions: 110000023 cycles: 64985608 heartbeat IPC: 1.508 cumulative IPC: 1.499 (Simulation time: 00 hr 10 min 11 sec)
Simulation finished CPU 0 instructions: 100000002 cycles: 66645618 cumulative IPC: 1.5 (Simulation time: 00 hr 11 min 12 sec)
Simulation complete CPU 0 instructions: 100000002 cycles: 66645618 cumulative IPC: 1.5 (Simulation time: 00 hr 11 min 12 sec)

ChampSim completed all CPUs

=== Simulation ===
CPU 0 runs /home/ho/itp_asplos25_AE/traces/qualcomm_srv/srv630_ap.champsimtrace.xz

Region of Interest Statistics

CPU 0 cumulative IPC: 1.5 instructions: 100000002 cycles: 66645618
CPU 0 Branch Prediction Accuracy: 93.8% MPKI: 11.57 Average ROB Occupancy at Mispredict: 31.43
Branch type MPKI
BRANCH_DIRECT_JUMP: 0.00657
BRANCH_INDIRECT: 0.422
BRANCH_CONDITIONAL: 10.92
BRANCH_DIRECT_CALL: 0.00228
BRANCH_INDIRECT_CALL: 0.211
BRANCH_RETURN: 0.00967


====Backend Stall Breakdown====
ROB_STALL: 293065
LQ_STALL: 0
SQ_STALL: 452


====ROB Stall Breakdown====

== Average ==
ADDR_TRANS: 373.4918
REPLAY_LOAD: 80.52381
NON_REPLAY_LOAD: 29.24669

== Total ==
ADDR_TRANS: 22783
REPLAY_LOAD: 5073
NON_REPLAY_LOAD: 265209

== Counts ==
ADDR_TRANS: 61
REPLAY_LOAD: 63
NON_REPLAY_LOAD: 9068

cpu0->cpu0_STLB TOTAL        ACCESS:    1746789 HIT:    1745334 MISS:       1455 MSHR_MERGE:          0
cpu0->cpu0_STLB LOAD         ACCESS:    1746789 HIT:    1745334 MISS:       1455 MSHR_MERGE:          0
cpu0->cpu0_STLB RFO          ACCESS:          0 HIT:          0 MISS:          0 MSHR_MERGE:          0
cpu0->cpu0_STLB PREFETCH     ACCESS:          0 HIT:          0 MISS:          0 MSHR_MERGE:          0
cpu0->cpu0_STLB WRITE        ACCESS:          0 HIT:          0 MISS:          0 MSHR_MERGE:          0
cpu0->cpu0_STLB TRANSLATION  ACCESS:          0 HIT:          0 MISS:          0 MSHR_MERGE:          0
cpu0->cpu0_STLB PREFETCH REQUESTED:          0 ISSUED:          0 USEFUL:          0 USELESS:          0
cpu0->cpu0_STLB AVERAGE MISS LATENCY: 114.5 cycles
cpu0->cpu0_L2C TOTAL        ACCESS:    7941778 HIT:    7812314 MISS:     129464 MSHR_MERGE:          0
cpu0->cpu0_L2C LOAD         ACCESS:    7307588 HIT:    7199720 MISS:     107868 MSHR_MERGE:          0
cpu0->cpu0_L2C RFO          ACCESS:     170901 HIT:     152426 MISS:      18475 MSHR_MERGE:          0
cpu0->cpu0_L2C PREFETCH     ACCESS:          0 HIT:          0 MISS:          0 MSHR_MERGE:          0
cpu0->cpu0_L2C WRITE        ACCESS:     461460 HIT:     459209 MISS:       2251 MSHR_MERGE:          0
cpu0->cpu0_L2C TRANSLATION  ACCESS:       1829 HIT:        959 MISS:        870 MSHR_MERGE:          0
cpu0->cpu0_L2C PREFETCH REQUESTED:          0 ISSUED:          0 USEFUL:          0 USELESS:          0
cpu0->cpu0_L2C AVERAGE MISS LATENCY: 34.76 cycles
cpu0->cpu0_L1I TOTAL        ACCESS:   15683026 HIT:    7158772 MISS:    8524254 MSHR_MERGE:    2226961
cpu0->cpu0_L1I LOAD         ACCESS:   15683026 HIT:    7158772 MISS:    8524254 MSHR_MERGE:    2226961
cpu0->cpu0_L1I RFO          ACCESS:          0 HIT:          0 MISS:          0 MSHR_MERGE:          0
cpu0->cpu0_L1I PREFETCH     ACCESS:          0 HIT:          0 MISS:          0 MSHR_MERGE:          0
cpu0->cpu0_L1I WRITE        ACCESS:          0 HIT:          0 MISS:          0 MSHR_MERGE:          0
cpu0->cpu0_L1I TRANSLATION  ACCESS:          0 HIT:          0 MISS:          0 MSHR_MERGE:          0
cpu0->cpu0_L1I PREFETCH REQUESTED:          0 ISSUED:          0 USEFUL:          0 USELESS:          0
cpu0->cpu0_L1I AVERAGE MISS LATENCY: 11.38 cycles
cpu0->cpu0_L1D TOTAL        ACCESS:   27371998 HIT:   25585681 MISS:    1786317 MSHR_MERGE:     603154
cpu0->cpu0_L1D LOAD         ACCESS:   14996571 HIT:   13633704 MISS:    1362867 MSHR_MERGE:     352435
cpu0->cpu0_L1D RFO          ACCESS:          0 HIT:          0 MISS:          0 MSHR_MERGE:          0
cpu0->cpu0_L1D PREFETCH     ACCESS:          0 HIT:          0 MISS:          0 MSHR_MERGE:          0
cpu0->cpu0_L1D WRITE        ACCESS:   12372498 HIT:   11950878 MISS:     421620 MSHR_MERGE:     250718
cpu0->cpu0_L1D TRANSLATION  ACCESS:       2929 HIT:       1099 MISS:       1830 MSHR_MERGE:          1
cpu0->cpu0_L1D PREFETCH REQUESTED:          0 ISSUED:          0 USEFUL:          0 USELESS:          0
cpu0->cpu0_L1D AVERAGE MISS LATENCY: 15.34 cycles
cpu0->cpu0_ITLB TOTAL        ACCESS:   13060387 HIT:   11090424 MISS:    1969963 MSHR_MERGE:    1012897
cpu0->cpu0_ITLB LOAD         ACCESS:   13060387 HIT:   11090424 MISS:    1969963 MSHR_MERGE:    1012897
cpu0->cpu0_ITLB RFO          ACCESS:          0 HIT:          0 MISS:          0 MSHR_MERGE:          0
cpu0->cpu0_ITLB PREFETCH     ACCESS:          0 HIT:          0 MISS:          0 MSHR_MERGE:          0
cpu0->cpu0_ITLB WRITE        ACCESS:          0 HIT:          0 MISS:          0 MSHR_MERGE:          0
cpu0->cpu0_ITLB TRANSLATION  ACCESS:          0 HIT:          0 MISS:          0 MSHR_MERGE:          0
cpu0->cpu0_ITLB PREFETCH REQUESTED:          0 ISSUED:          0 USEFUL:          0 USELESS:          0
cpu0->cpu0_ITLB AVERAGE MISS LATENCY: 5.024 cycles
cpu0->cpu0_DTLB TOTAL        ACCESS:   25753140 HIT:   24632629 MISS:    1120511 MSHR_MERGE:     330788
cpu0->cpu0_DTLB LOAD         ACCESS:   25753140 HIT:   24632629 MISS:    1120511 MSHR_MERGE:     330788
cpu0->cpu0_DTLB RFO          ACCESS:          0 HIT:          0 MISS:          0 MSHR_MERGE:          0
cpu0->cpu0_DTLB PREFETCH     ACCESS:          0 HIT:          0 MISS:          0 MSHR_MERGE:          0
cpu0->cpu0_DTLB WRITE        ACCESS:          0 HIT:          0 MISS:          0 MSHR_MERGE:          0
cpu0->cpu0_DTLB TRANSLATION  ACCESS:          0 HIT:          0 MISS:          0 MSHR_MERGE:          0
cpu0->cpu0_DTLB PREFETCH REQUESTED:          0 ISSUED:          0 USEFUL:          0 USELESS:          0
cpu0->cpu0_DTLB AVERAGE MISS LATENCY: 5.198 cycles
cpu0->LLC TOTAL        ACCESS:     189768 HIT:     181222 MISS:       8546 MSHR_MERGE:          0
cpu0->LLC LOAD         ACCESS:     107868 HIT:     103409 MISS:       4459 MSHR_MERGE:          0
cpu0->LLC RFO          ACCESS:      18475 HIT:      14825 MISS:       3650 MSHR_MERGE:          0
cpu0->LLC PREFETCH     ACCESS:          0 HIT:          0 MISS:          0 MSHR_MERGE:          0
cpu0->LLC WRITE        ACCESS:      62555 HIT:      62548 MISS:          7 MSHR_MERGE:          0
cpu0->LLC TRANSLATION  ACCESS:        870 HIT:        440 MISS:        430 MSHR_MERGE:          0
cpu0->LLC PREFETCH REQUESTED:          0 ISSUED:          0 USEFUL:          0 USELESS:          0
cpu0->LLC AVERAGE MISS LATENCY: 79.51 cycles

DRAM Statistics

Channel 0 RQ ROW_BUFFER_HIT:        878
  ROW_BUFFER_MISS:       7661
  AVG DBUS CONGESTED CYCLE: 5.463
Channel 0 WQ ROW_BUFFER_HIT:         45
  ROW_BUFFER_MISS:        585
  FULL:          0
Channel 0 REFRESHES ISSUED:       5554
[2025-09-15 21:40:55] END   suite=qualcomm_srv trace=srv630_ap (rc=0)
