[2025-09-15 21:54:01] START suite=qualcomm_srv trace=srv661_ap
CMD: ./bin/champsim -w 20000000 -i 100000000 /home/ho/itp_asplos25_AE/traces/qualcomm_srv/srv661_ap.champsimtrace.xz
[VMEM] WARNING: physical memory size is smaller than virtual memory size.

*** ChampSim Multicore Out-of-Order Simulator ***
Warmup Instructions: 20000000
Simulation Instructions: 100000000
Number of CPUs: 1
Page size: 4096

Off-chip DRAM Size: 16 GiB Channels: 1 Width: 64-bit Data Rate: 3205 MT/s
[BTB] WARNING: target of return is a lower address than the corresponding call. This is usually a problem with your trace.
[BTB] WARNING: target of return is a lower address than the corresponding call. This is usually a problem with your trace.
[BTB] WARNING: target of return is a lower address than the corresponding call. This is usually a problem with your trace.
[BTB] WARNING: target of return is a lower address than the corresponding call. This is usually a problem with your trace.
[BTB] WARNING: target of return is a lower address than the corresponding call. This is usually a problem with your trace.
[BTB] WARNING: target of return is a lower address than the corresponding call. This is usually a problem with your trace.
[BTB] WARNING: target of return is a lower address than the corresponding call. This is usually a problem with your trace.
[BTB] WARNING: target of return is a lower address than the corresponding call. This is usually a problem with your trace.
[BTB] WARNING: target of return is a lower address than the corresponding call. This is usually a problem with your trace.
[BTB] WARNING: target of return is a lower address than the corresponding call. This is usually a problem with your trace.
Heartbeat CPU 0 instructions: 10000003 cycles: 2641770 heartbeat IPC: 3.785 cumulative IPC: 3.785 (Simulation time: 00 hr 00 min 39 sec)
Warmup finished CPU 0 instructions: 20000000 cycles: 5076247 cumulative IPC: 3.94 (Simulation time: 00 hr 01 min 16 sec)
Warmup complete CPU 0 instructions: 20000000 cycles: 5076247 cumulative IPC: 3.94 (Simulation time: 00 hr 01 min 16 sec)
Heartbeat CPU 0 instructions: 20000005 cycles: 5076248 heartbeat IPC: 4.108 cumulative IPC: 5 (Simulation time: 00 hr 01 min 16 sec)
Heartbeat CPU 0 instructions: 30000005 cycles: 13877108 heartbeat IPC: 1.136 cumulative IPC: 1.136 (Simulation time: 00 hr 02 min 23 sec)
Heartbeat CPU 0 instructions: 40000005 cycles: 22609194 heartbeat IPC: 1.145 cumulative IPC: 1.141 (Simulation time: 00 hr 03 min 33 sec)
Heartbeat CPU 0 instructions: 50000007 cycles: 31374964 heartbeat IPC: 1.141 cumulative IPC: 1.141 (Simulation time: 00 hr 04 min 48 sec)
Heartbeat CPU 0 instructions: 60000007 cycles: 40142300 heartbeat IPC: 1.141 cumulative IPC: 1.141 (Simulation time: 00 hr 06 min 00 sec)
Heartbeat CPU 0 instructions: 70000011 cycles: 48993175 heartbeat IPC: 1.13 cumulative IPC: 1.139 (Simulation time: 00 hr 07 min 06 sec)
Heartbeat CPU 0 instructions: 80000011 cycles: 58081207 heartbeat IPC: 1.1 cumulative IPC: 1.132 (Simulation time: 00 hr 08 min 14 sec)
*** Reached end of trace: (0, "/home/ho/itp_asplos25_AE/traces/qualcomm_srv/srv661_ap.champsimtrace.xz")
Heartbeat CPU 0 instructions: 90000014 cycles: 66933904 heartbeat IPC: 1.13 cumulative IPC: 1.132 (Simulation time: 00 hr 09 min 26 sec)
Heartbeat CPU 0 instructions: 100000014 cycles: 75733301 heartbeat IPC: 1.136 cumulative IPC: 1.132 (Simulation time: 00 hr 10 min 35 sec)
Heartbeat CPU 0 instructions: 110000014 cycles: 84326030 heartbeat IPC: 1.164 cumulative IPC: 1.136 (Simulation time: 00 hr 11 min 47 sec)
Simulation finished CPU 0 instructions: 100000002 cycles: 87981117 cumulative IPC: 1.137 (Simulation time: 00 hr 13 min 01 sec)
Simulation complete CPU 0 instructions: 100000002 cycles: 87981117 cumulative IPC: 1.137 (Simulation time: 00 hr 13 min 01 sec)

ChampSim completed all CPUs

=== Simulation ===
CPU 0 runs /home/ho/itp_asplos25_AE/traces/qualcomm_srv/srv661_ap.champsimtrace.xz

Region of Interest Statistics

CPU 0 cumulative IPC: 1.137 instructions: 100000002 cycles: 87981117
CPU 0 Branch Prediction Accuracy: 92.36% MPKI: 13.75 Average ROB Occupancy at Mispredict: 28.8
Branch type MPKI
BRANCH_DIRECT_JUMP: 0.1254
BRANCH_INDIRECT: 0.3613
BRANCH_CONDITIONAL: 11.86
BRANCH_DIRECT_CALL: 0.4564
BRANCH_INDIRECT_CALL: 0.5224
BRANCH_RETURN: 0.4232


====Backend Stall Breakdown====
ROB_STALL: 88294
LQ_STALL: 0
SQ_STALL: 428795


====ROB Stall Breakdown====

== Average ==
ADDR_TRANS: 200.44186
REPLAY_LOAD: 11.511003
NON_REPLAY_LOAD: 11.068507

== Total ==
ADDR_TRANS: 8619
REPLAY_LOAD: 4708
NON_REPLAY_LOAD: 74967

== Counts ==
ADDR_TRANS: 43
REPLAY_LOAD: 409
NON_REPLAY_LOAD: 6773

cpu0->cpu0_STLB TOTAL        ACCESS:    2052617 HIT:    2038462 MISS:      14155 MSHR_MERGE:          0
cpu0->cpu0_STLB LOAD         ACCESS:    2052617 HIT:    2038462 MISS:      14155 MSHR_MERGE:          0
cpu0->cpu0_STLB RFO          ACCESS:          0 HIT:          0 MISS:          0 MSHR_MERGE:          0
cpu0->cpu0_STLB PREFETCH     ACCESS:          0 HIT:          0 MISS:          0 MSHR_MERGE:          0
cpu0->cpu0_STLB WRITE        ACCESS:          0 HIT:          0 MISS:          0 MSHR_MERGE:          0
cpu0->cpu0_STLB TRANSLATION  ACCESS:          0 HIT:          0 MISS:          0 MSHR_MERGE:          0
cpu0->cpu0_STLB PREFETCH REQUESTED:          0 ISSUED:          0 USEFUL:          0 USELESS:          0
cpu0->cpu0_STLB AVERAGE MISS LATENCY: 89.67 cycles
cpu0->cpu0_L2C TOTAL        ACCESS:    9627830 HIT:    8620998 MISS:    1006832 MSHR_MERGE:          0
cpu0->cpu0_L2C LOAD         ACCESS:    7846921 HIT:    6955032 MISS:     891889 MSHR_MERGE:          0
cpu0->cpu0_L2C RFO          ACCESS:     599005 HIT:     509378 MISS:      89627 MSHR_MERGE:          0
cpu0->cpu0_L2C PREFETCH     ACCESS:          0 HIT:          0 MISS:          0 MSHR_MERGE:          0
cpu0->cpu0_L2C WRITE        ACCESS:    1158102 HIT:    1143580 MISS:      14522 MSHR_MERGE:          0
cpu0->cpu0_L2C TRANSLATION  ACCESS:      23802 HIT:      13008 MISS:      10794 MSHR_MERGE:          0
cpu0->cpu0_L2C PREFETCH REQUESTED:          0 ISSUED:          0 USEFUL:          0 USELESS:          0
cpu0->cpu0_L2C AVERAGE MISS LATENCY: 32.45 cycles
cpu0->cpu0_L1I TOTAL        ACCESS:   15236795 HIT:    7768628 MISS:    7468167 MSHR_MERGE:    1785578
cpu0->cpu0_L1I LOAD         ACCESS:   15236795 HIT:    7768628 MISS:    7468167 MSHR_MERGE:    1785578
cpu0->cpu0_L1I RFO          ACCESS:          0 HIT:          0 MISS:          0 MSHR_MERGE:          0
cpu0->cpu0_L1I PREFETCH     ACCESS:          0 HIT:          0 MISS:          0 MSHR_MERGE:          0
cpu0->cpu0_L1I WRITE        ACCESS:          0 HIT:          0 MISS:          0 MSHR_MERGE:          0
cpu0->cpu0_L1I TRANSLATION  ACCESS:          0 HIT:          0 MISS:          0 MSHR_MERGE:          0
cpu0->cpu0_L1I PREFETCH REQUESTED:          0 ISSUED:          0 USEFUL:          0 USELESS:          0
cpu0->cpu0_L1I AVERAGE MISS LATENCY: 14.38 cycles
cpu0->cpu0_L1D TOTAL        ACCESS:   29771880 HIT:   25298449 MISS:    4473431 MSHR_MERGE:    1686287
cpu0->cpu0_L1D LOAD         ACCESS:   16580884 HIT:   13936771 MISS:    2644113 MSHR_MERGE:     479776
cpu0->cpu0_L1D RFO          ACCESS:          0 HIT:          0 MISS:          0 MSHR_MERGE:          0
cpu0->cpu0_L1D PREFETCH     ACCESS:          0 HIT:          0 MISS:          0 MSHR_MERGE:          0
cpu0->cpu0_L1D WRITE        ACCESS:   13162300 HIT:   11356900 MISS:    1805400 MSHR_MERGE:    1206395
cpu0->cpu0_L1D TRANSLATION  ACCESS:      28696 HIT:       4778 MISS:      23918 MSHR_MERGE:        116
cpu0->cpu0_L1D PREFETCH REQUESTED:          0 ISSUED:          0 USEFUL:          0 USELESS:          0
cpu0->cpu0_L1D AVERAGE MISS LATENCY: 18.05 cycles
cpu0->cpu0_ITLB TOTAL        ACCESS:   12500125 HIT:   10398268 MISS:    2101857 MSHR_MERGE:    1055160
cpu0->cpu0_ITLB LOAD         ACCESS:   12500125 HIT:   10398268 MISS:    2101857 MSHR_MERGE:    1055160
cpu0->cpu0_ITLB RFO          ACCESS:          0 HIT:          0 MISS:          0 MSHR_MERGE:          0
cpu0->cpu0_ITLB PREFETCH     ACCESS:          0 HIT:          0 MISS:          0 MSHR_MERGE:          0
cpu0->cpu0_ITLB WRITE        ACCESS:          0 HIT:          0 MISS:          0 MSHR_MERGE:          0
cpu0->cpu0_ITLB TRANSLATION  ACCESS:          0 HIT:          0 MISS:          0 MSHR_MERGE:          0
cpu0->cpu0_ITLB PREFETCH REQUESTED:          0 ISSUED:          0 USEFUL:          0 USELESS:          0
cpu0->cpu0_ITLB AVERAGE MISS LATENCY: 5.389 cycles
cpu0->cpu0_DTLB TOTAL        ACCESS:   28327399 HIT:   26978474 MISS:    1348925 MSHR_MERGE:     343005
cpu0->cpu0_DTLB LOAD         ACCESS:   28327399 HIT:   26978474 MISS:    1348925 MSHR_MERGE:     343005
cpu0->cpu0_DTLB RFO          ACCESS:          0 HIT:          0 MISS:          0 MSHR_MERGE:          0
cpu0->cpu0_DTLB PREFETCH     ACCESS:          0 HIT:          0 MISS:          0 MSHR_MERGE:          0
cpu0->cpu0_DTLB WRITE        ACCESS:          0 HIT:          0 MISS:          0 MSHR_MERGE:          0
cpu0->cpu0_DTLB TRANSLATION  ACCESS:          0 HIT:          0 MISS:          0 MSHR_MERGE:          0
cpu0->cpu0_DTLB PREFETCH REQUESTED:          0 ISSUED:          0 USEFUL:          0 USELESS:          0
cpu0->cpu0_DTLB AVERAGE MISS LATENCY: 5.887 cycles
cpu0->LLC TOTAL        ACCESS:    1168728 HIT:    1141183 MISS:      27545 MSHR_MERGE:          0
cpu0->LLC LOAD         ACCESS:     891889 HIT:     873262 MISS:      18627 MSHR_MERGE:          0
cpu0->LLC RFO          ACCESS:      89626 HIT:      83835 MISS:       5791 MSHR_MERGE:          0
cpu0->LLC PREFETCH     ACCESS:          0 HIT:          0 MISS:          0 MSHR_MERGE:          0
cpu0->LLC WRITE        ACCESS:     176419 HIT:     176294 MISS:        125 MSHR_MERGE:          0
cpu0->LLC TRANSLATION  ACCESS:      10794 HIT:       7792 MISS:       3002 MSHR_MERGE:          0
cpu0->LLC PREFETCH REQUESTED:          0 ISSUED:          0 USEFUL:          0 USELESS:          0
cpu0->LLC AVERAGE MISS LATENCY: 105.3 cycles

DRAM Statistics

Channel 0 RQ ROW_BUFFER_HIT:       1231
  ROW_BUFFER_MISS:      26189
  AVG DBUS CONGESTED CYCLE: 3.199
Channel 0 WQ ROW_BUFFER_HIT:        136
  ROW_BUFFER_MISS:       2100
  FULL:          0
Channel 0 REFRESHES ISSUED:       7331
[2025-09-15 22:07:02] END   suite=qualcomm_srv trace=srv661_ap (rc=0)
