[2025-09-15 21:15:51] START suite=qualcomm_srv trace=srv760_ap
CMD: ./bin/champsim -w 20000000 -i 100000000 /home/ho/itp_asplos25_AE/traces/qualcomm_srv/srv760_ap.champsimtrace.xz
[VMEM] WARNING: physical memory size is smaller than virtual memory size.

*** ChampSim Multicore Out-of-Order Simulator ***
Warmup Instructions: 20000000
Simulation Instructions: 100000000
Number of CPUs: 1
Page size: 4096

Off-chip DRAM Size: 16 GiB Channels: 1 Width: 64-bit Data Rate: 3205 MT/s
[BTB] WARNING: target of return is a lower address than the corresponding call. This is usually a problem with your trace.
[BTB] WARNING: target of return is a lower address than the corresponding call. This is usually a problem with your trace.
[BTB] WARNING: target of return is a lower address than the corresponding call. This is usually a problem with your trace.
[BTB] WARNING: target of return is a lower address than the corresponding call. This is usually a problem with your trace.
[BTB] WARNING: target of return is a lower address than the corresponding call. This is usually a problem with your trace.
[BTB] WARNING: target of return is a lower address than the corresponding call. This is usually a problem with your trace.
[BTB] WARNING: target of return is a lower address than the corresponding call. This is usually a problem with your trace.
[BTB] WARNING: target of return is a lower address than the corresponding call. This is usually a problem with your trace.
[BTB] WARNING: target of return is a lower address than the corresponding call. This is usually a problem with your trace.
[BTB] WARNING: target of return is a lower address than the corresponding call. This is usually a problem with your trace.
Heartbeat CPU 0 instructions: 10000000 cycles: 2786751 heartbeat IPC: 3.588 cumulative IPC: 3.588 (Simulation time: 00 hr 00 min 39 sec)
Heartbeat CPU 0 instructions: 20000003 cycles: 5253661 heartbeat IPC: 4.054 cumulative IPC: 3.807 (Simulation time: 00 hr 01 min 15 sec)
Warmup finished CPU 0 instructions: 20000003 cycles: 5253661 cumulative IPC: 3.807 (Simulation time: 00 hr 01 min 15 sec)
Warmup complete CPU 0 instructions: 20000003 cycles: 5253661 cumulative IPC: 3.807 (Simulation time: 00 hr 01 min 15 sec)
Heartbeat CPU 0 instructions: 30000006 cycles: 15638710 heartbeat IPC: 0.9629 cumulative IPC: 0.9629 (Simulation time: 00 hr 02 min 39 sec)
Heartbeat CPU 0 instructions: 40000010 cycles: 25437409 heartbeat IPC: 1.021 cumulative IPC: 0.9909 (Simulation time: 00 hr 03 min 56 sec)
Heartbeat CPU 0 instructions: 50000011 cycles: 35785481 heartbeat IPC: 0.9664 cumulative IPC: 0.9826 (Simulation time: 00 hr 05 min 22 sec)
Heartbeat CPU 0 instructions: 60000013 cycles: 46234196 heartbeat IPC: 0.9571 cumulative IPC: 0.9761 (Simulation time: 00 hr 06 min 36 sec)
Heartbeat CPU 0 instructions: 70000015 cycles: 56811616 heartbeat IPC: 0.9454 cumulative IPC: 0.9698 (Simulation time: 00 hr 07 min 47 sec)
Heartbeat CPU 0 instructions: 80000015 cycles: 67170033 heartbeat IPC: 0.9654 cumulative IPC: 0.969 (Simulation time: 00 hr 09 min 07 sec)
Heartbeat CPU 0 instructions: 90000015 cycles: 77277047 heartbeat IPC: 0.9894 cumulative IPC: 0.9719 (Simulation time: 00 hr 10 min 19 sec)
Heartbeat CPU 0 instructions: 100000016 cycles: 87778020 heartbeat IPC: 0.9523 cumulative IPC: 0.9694 (Simulation time: 00 hr 11 min 30 sec)
*** Reached end of trace: (0, "/home/ho/itp_asplos25_AE/traces/qualcomm_srv/srv760_ap.champsimtrace.xz")
Heartbeat CPU 0 instructions: 110000016 cycles: 97942270 heartbeat IPC: 0.9838 cumulative IPC: 0.971 (Simulation time: 00 hr 12 min 40 sec)
Simulation finished CPU 0 instructions: 100000000 cycles: 102059101 cumulative IPC: 0.9798 (Simulation time: 00 hr 13 min 51 sec)
Simulation complete CPU 0 instructions: 100000000 cycles: 102059101 cumulative IPC: 0.9798 (Simulation time: 00 hr 13 min 51 sec)

ChampSim completed all CPUs

=== Simulation ===
CPU 0 runs /home/ho/itp_asplos25_AE/traces/qualcomm_srv/srv760_ap.champsimtrace.xz

Region of Interest Statistics

CPU 0 cumulative IPC: 0.9798 instructions: 100000000 cycles: 102059101
CPU 0 Branch Prediction Accuracy: 94.12% MPKI: 10.52 Average ROB Occupancy at Mispredict: 40.25
Branch type MPKI
BRANCH_DIRECT_JUMP: 0.1788
BRANCH_INDIRECT: 0.196
BRANCH_CONDITIONAL: 9.44
BRANCH_DIRECT_CALL: 0.3246
BRANCH_INDIRECT_CALL: 0.08729
BRANCH_RETURN: 0.2951


====Backend Stall Breakdown====
ROB_STALL: 2018196
LQ_STALL: 0
SQ_STALL: 501709


====ROB Stall Breakdown====

== Average ==
ADDR_TRANS: 222.23363
REPLAY_LOAD: 63.059185
NON_REPLAY_LOAD: 13.085009

== Total ==
ADDR_TRANS: 566918
REPLAY_LOAD: 184322
NON_REPLAY_LOAD: 1266956

== Counts ==
ADDR_TRANS: 2551
REPLAY_LOAD: 2923
NON_REPLAY_LOAD: 96825

cpu0->cpu0_STLB TOTAL        ACCESS:    1542251 HIT:    1370748 MISS:     171503 MSHR_MERGE:          0
cpu0->cpu0_STLB LOAD         ACCESS:    1542251 HIT:    1370748 MISS:     171503 MSHR_MERGE:          0
cpu0->cpu0_STLB RFO          ACCESS:          0 HIT:          0 MISS:          0 MSHR_MERGE:          0
cpu0->cpu0_STLB PREFETCH     ACCESS:          0 HIT:          0 MISS:          0 MSHR_MERGE:          0
cpu0->cpu0_STLB WRITE        ACCESS:          0 HIT:          0 MISS:          0 MSHR_MERGE:          0
cpu0->cpu0_STLB TRANSLATION  ACCESS:          0 HIT:          0 MISS:          0 MSHR_MERGE:          0
cpu0->cpu0_STLB PREFETCH REQUESTED:          0 ISSUED:          0 USEFUL:          0 USELESS:          0
cpu0->cpu0_STLB AVERAGE MISS LATENCY: 135.9 cycles
cpu0->cpu0_L2C TOTAL        ACCESS:    4635046 HIT:    2744740 MISS:    1890306 MSHR_MERGE:          0
cpu0->cpu0_L2C LOAD         ACCESS:    3581360 HIT:    2090482 MISS:    1490878 MSHR_MERGE:          0
cpu0->cpu0_L2C RFO          ACCESS:     173132 HIT:      80664 MISS:      92468 MSHR_MERGE:          0
cpu0->cpu0_L2C PREFETCH     ACCESS:          0 HIT:          0 MISS:          0 MSHR_MERGE:          0
cpu0->cpu0_L2C WRITE        ACCESS:     523868 HIT:     521256 MISS:       2612 MSHR_MERGE:          0
cpu0->cpu0_L2C TRANSLATION  ACCESS:     356686 HIT:      52338 MISS:     304348 MSHR_MERGE:          0
cpu0->cpu0_L2C PREFETCH REQUESTED:          0 ISSUED:          0 USEFUL:          0 USELESS:          0
cpu0->cpu0_L2C AVERAGE MISS LATENCY: 40.66 cycles
cpu0->cpu0_L1I TOTAL        ACCESS:   14477118 HIT:   11026419 MISS:    3450699 MSHR_MERGE:     966304
cpu0->cpu0_L1I LOAD         ACCESS:   14477118 HIT:   11026419 MISS:    3450699 MSHR_MERGE:     966304
cpu0->cpu0_L1I RFO          ACCESS:          0 HIT:          0 MISS:          0 MSHR_MERGE:          0
cpu0->cpu0_L1I PREFETCH     ACCESS:          0 HIT:          0 MISS:          0 MSHR_MERGE:          0
cpu0->cpu0_L1I WRITE        ACCESS:          0 HIT:          0 MISS:          0 MSHR_MERGE:          0
cpu0->cpu0_L1I TRANSLATION  ACCESS:          0 HIT:          0 MISS:          0 MSHR_MERGE:          0
cpu0->cpu0_L1I PREFETCH REQUESTED:          0 ISSUED:          0 USEFUL:          0 USELESS:          0
cpu0->cpu0_L1I AVERAGE MISS LATENCY: 24.03 cycles
cpu0->cpu0_L1D TOTAL        ACCESS:   24755109 HIT:   22479561 MISS:    2275548 MSHR_MERGE:     648756
cpu0->cpu0_L1D LOAD         ACCESS:   14367336 HIT:   12897547 MISS:    1469789 MSHR_MERGE:     372822
cpu0->cpu0_L1D RFO          ACCESS:          0 HIT:          0 MISS:          0 MSHR_MERGE:          0
cpu0->cpu0_L1D PREFETCH     ACCESS:          0 HIT:          0 MISS:          0 MSHR_MERGE:          0
cpu0->cpu0_L1D WRITE        ACCESS:    9993690 HIT:    9548179 MISS:     445511 MSHR_MERGE:     272372
cpu0->cpu0_L1D TRANSLATION  ACCESS:     394083 HIT:      33835 MISS:     360248 MSHR_MERGE:       3562
cpu0->cpu0_L1D PREFETCH REQUESTED:          0 ISSUED:          0 USEFUL:          0 USELESS:          0
cpu0->cpu0_L1D AVERAGE MISS LATENCY: 40.43 cycles
cpu0->cpu0_ITLB TOTAL        ACCESS:   11911590 HIT:   11129740 MISS:     781850 MSHR_MERGE:     406543
cpu0->cpu0_ITLB LOAD         ACCESS:   11911590 HIT:   11129740 MISS:     781850 MSHR_MERGE:     406543
cpu0->cpu0_ITLB RFO          ACCESS:          0 HIT:          0 MISS:          0 MSHR_MERGE:          0
cpu0->cpu0_ITLB PREFETCH     ACCESS:          0 HIT:          0 MISS:          0 MSHR_MERGE:          0
cpu0->cpu0_ITLB WRITE        ACCESS:          0 HIT:          0 MISS:          0 MSHR_MERGE:          0
cpu0->cpu0_ITLB TRANSLATION  ACCESS:          0 HIT:          0 MISS:          0 MSHR_MERGE:          0
cpu0->cpu0_ITLB PREFETCH REQUESTED:          0 ISSUED:          0 USEFUL:          0 USELESS:          0
cpu0->cpu0_ITLB AVERAGE MISS LATENCY: 22.69 cycles
cpu0->cpu0_DTLB TOTAL        ACCESS:   23241058 HIT:   21672335 MISS:    1568723 MSHR_MERGE:     401779
cpu0->cpu0_DTLB LOAD         ACCESS:   23241058 HIT:   21672335 MISS:    1568723 MSHR_MERGE:     401779
cpu0->cpu0_DTLB RFO          ACCESS:          0 HIT:          0 MISS:          0 MSHR_MERGE:          0
cpu0->cpu0_DTLB PREFETCH     ACCESS:          0 HIT:          0 MISS:          0 MSHR_MERGE:          0
cpu0->cpu0_DTLB WRITE        ACCESS:          0 HIT:          0 MISS:          0 MSHR_MERGE:          0
cpu0->cpu0_DTLB TRANSLATION  ACCESS:          0 HIT:          0 MISS:          0 MSHR_MERGE:          0
cpu0->cpu0_DTLB PREFETCH REQUESTED:          0 ISSUED:          0 USEFUL:          0 USELESS:          0
cpu0->cpu0_DTLB AVERAGE MISS LATENCY: 19.45 cycles
cpu0->LLC TOTAL        ACCESS:    2174811 HIT:    1952385 MISS:     222426 MSHR_MERGE:          0
cpu0->LLC LOAD         ACCESS:    1490878 HIT:    1339095 MISS:     151783 MSHR_MERGE:          0
cpu0->LLC RFO          ACCESS:      92468 HIT:      66749 MISS:      25719 MSHR_MERGE:          0
cpu0->LLC PREFETCH     ACCESS:          0 HIT:          0 MISS:          0 MSHR_MERGE:          0
cpu0->LLC WRITE        ACCESS:     287117 HIT:     286858 MISS:        259 MSHR_MERGE:          0
cpu0->LLC TRANSLATION  ACCESS:     304348 HIT:     259683 MISS:      44665 MSHR_MERGE:          0
cpu0->LLC PREFETCH REQUESTED:          0 ISSUED:          0 USEFUL:          0 USELESS:          0
cpu0->LLC AVERAGE MISS LATENCY: 91.72 cycles

DRAM Statistics

Channel 0 RQ ROW_BUFFER_HIT:       4109
  ROW_BUFFER_MISS:     218057
  AVG DBUS CONGESTED CYCLE: 7.697
Channel 0 WQ ROW_BUFFER_HIT:      16008
  ROW_BUFFER_MISS:      96774
  FULL:          0
Channel 0 REFRESHES ISSUED:       8505
[2025-09-15 21:29:43] END   suite=qualcomm_srv trace=srv760_ap (rc=0)
