[2025-09-16 00:11:38] START suite=qualcomm_srv trace=srv728_ap
CMD: ./bin/champsim -w 20000000 -i 100000000 /home/ho/itp_asplos25_AE/traces/qualcomm_srv/srv728_ap.champsimtrace.xz
[VMEM] WARNING: physical memory size is smaller than virtual memory size.

*** ChampSim Multicore Out-of-Order Simulator ***
Warmup Instructions: 20000000
Simulation Instructions: 100000000
Number of CPUs: 1
Page size: 4096

Off-chip DRAM Size: 16 GiB Channels: 1 Width: 64-bit Data Rate: 3205 MT/s
[BTB] WARNING: target of return is a lower address than the corresponding call. This is usually a problem with your trace.
[BTB] WARNING: target of return is a lower address than the corresponding call. This is usually a problem with your trace.
[BTB] WARNING: target of return is a lower address than the corresponding call. This is usually a problem with your trace.
[BTB] WARNING: target of return is a lower address than the corresponding call. This is usually a problem with your trace.
[BTB] WARNING: target of return is a lower address than the corresponding call. This is usually a problem with your trace.
[BTB] WARNING: target of return is a lower address than the corresponding call. This is usually a problem with your trace.
[BTB] WARNING: target of return is a lower address than the corresponding call. This is usually a problem with your trace.
[BTB] WARNING: target of return is a lower address than the corresponding call. This is usually a problem with your trace.
[BTB] WARNING: target of return is a lower address than the corresponding call. This is usually a problem with your trace.
[BTB] WARNING: target of return is a lower address than the corresponding call. This is usually a problem with your trace.
Heartbeat CPU 0 instructions: 10000003 cycles: 2798308 heartbeat IPC: 3.574 cumulative IPC: 3.574 (Simulation time: 00 hr 00 min 40 sec)
Heartbeat CPU 0 instructions: 20000004 cycles: 5381219 heartbeat IPC: 3.872 cumulative IPC: 3.717 (Simulation time: 00 hr 01 min 16 sec)
Warmup finished CPU 0 instructions: 20000004 cycles: 5381219 cumulative IPC: 3.717 (Simulation time: 00 hr 01 min 16 sec)
Warmup complete CPU 0 instructions: 20000004 cycles: 5381219 cumulative IPC: 3.717 (Simulation time: 00 hr 01 min 16 sec)
Heartbeat CPU 0 instructions: 30000006 cycles: 14886350 heartbeat IPC: 1.052 cumulative IPC: 1.052 (Simulation time: 00 hr 02 min 29 sec)
Heartbeat CPU 0 instructions: 40000010 cycles: 24355454 heartbeat IPC: 1.056 cumulative IPC: 1.054 (Simulation time: 00 hr 03 min 40 sec)
Heartbeat CPU 0 instructions: 50000010 cycles: 33656147 heartbeat IPC: 1.075 cumulative IPC: 1.061 (Simulation time: 00 hr 04 min 50 sec)
Heartbeat CPU 0 instructions: 60000012 cycles: 43354345 heartbeat IPC: 1.031 cumulative IPC: 1.053 (Simulation time: 00 hr 06 min 07 sec)
Heartbeat CPU 0 instructions: 70000013 cycles: 52731857 heartbeat IPC: 1.066 cumulative IPC: 1.056 (Simulation time: 00 hr 07 min 24 sec)
Heartbeat CPU 0 instructions: 80000013 cycles: 62075008 heartbeat IPC: 1.07 cumulative IPC: 1.058 (Simulation time: 00 hr 08 min 41 sec)
*** Reached end of trace: (0, "/home/ho/itp_asplos25_AE/traces/qualcomm_srv/srv728_ap.champsimtrace.xz")
Heartbeat CPU 0 instructions: 90000014 cycles: 71399532 heartbeat IPC: 1.072 cumulative IPC: 1.06 (Simulation time: 00 hr 09 min 55 sec)
Heartbeat CPU 0 instructions: 100000018 cycles: 80757775 heartbeat IPC: 1.069 cumulative IPC: 1.061 (Simulation time: 00 hr 11 min 10 sec)
Heartbeat CPU 0 instructions: 110000022 cycles: 90072690 heartbeat IPC: 1.074 cumulative IPC: 1.063 (Simulation time: 00 hr 12 min 23 sec)
Simulation finished CPU 0 instructions: 100000000 cycles: 93995889 cumulative IPC: 1.064 (Simulation time: 00 hr 13 min 32 sec)
Simulation complete CPU 0 instructions: 100000000 cycles: 93995889 cumulative IPC: 1.064 (Simulation time: 00 hr 13 min 32 sec)

ChampSim completed all CPUs

=== Simulation ===
CPU 0 runs /home/ho/itp_asplos25_AE/traces/qualcomm_srv/srv728_ap.champsimtrace.xz

Region of Interest Statistics

CPU 0 cumulative IPC: 1.064 instructions: 100000000 cycles: 93995889
CPU 0 Branch Prediction Accuracy: 92.58% MPKI: 13.44 Average ROB Occupancy at Mispredict: 29.93
Branch type MPKI
BRANCH_DIRECT_JUMP: 0.06542
BRANCH_INDIRECT: 0.3264
BRANCH_CONDITIONAL: 11.82
BRANCH_DIRECT_CALL: 0.3914
BRANCH_INDIRECT_CALL: 0.4706
BRANCH_RETURN: 0.3688


====Backend Stall Breakdown====
ROB_STALL: 272183
LQ_STALL: 0
SQ_STALL: 955226


====ROB Stall Breakdown====

== Average ==
ADDR_TRANS: 130.8239
REPLAY_LOAD: 54.828846
NON_REPLAY_LOAD: 16.358541

== Total ==
ADDR_TRANS: 62403
REPLAY_LOAD: 28511
NON_REPLAY_LOAD: 181269

== Counts ==
ADDR_TRANS: 477
REPLAY_LOAD: 520
NON_REPLAY_LOAD: 11081

cpu0->cpu0_STLB TOTAL        ACCESS:    2093040 HIT:    2065888 MISS:      27152 MSHR_MERGE:          0
cpu0->cpu0_STLB LOAD         ACCESS:    2093040 HIT:    2065888 MISS:      27152 MSHR_MERGE:          0
cpu0->cpu0_STLB RFO          ACCESS:          0 HIT:          0 MISS:          0 MSHR_MERGE:          0
cpu0->cpu0_STLB PREFETCH     ACCESS:          0 HIT:          0 MISS:          0 MSHR_MERGE:          0
cpu0->cpu0_STLB WRITE        ACCESS:          0 HIT:          0 MISS:          0 MSHR_MERGE:          0
cpu0->cpu0_STLB TRANSLATION  ACCESS:          0 HIT:          0 MISS:          0 MSHR_MERGE:          0
cpu0->cpu0_STLB PREFETCH REQUESTED:          0 ISSUED:          0 USEFUL:          0 USELESS:          0
cpu0->cpu0_STLB AVERAGE MISS LATENCY: 193.2 cycles
cpu0->cpu0_L2C TOTAL        ACCESS:    9668364 HIT:    8553175 MISS:    1115189 MSHR_MERGE:          0
cpu0->cpu0_L2C LOAD         ACCESS:    7855852 HIT:    6890976 MISS:     964876 MSHR_MERGE:          0
cpu0->cpu0_L2C RFO          ACCESS:     597518 HIT:     503049 MISS:      94469 MSHR_MERGE:          0
cpu0->cpu0_L2C PREFETCH     ACCESS:          0 HIT:          0 MISS:          0 MSHR_MERGE:          0
cpu0->cpu0_L2C WRITE        ACCESS:    1152193 HIT:    1145459 MISS:       6734 MSHR_MERGE:          0
cpu0->cpu0_L2C TRANSLATION  ACCESS:      62801 HIT:      13691 MISS:      49110 MSHR_MERGE:          0
cpu0->cpu0_L2C PREFETCH REQUESTED:          0 ISSUED:          0 USEFUL:          0 USELESS:          0
cpu0->cpu0_L2C AVERAGE MISS LATENCY: 37.22 cycles
cpu0->cpu0_L1I TOTAL        ACCESS:   14791237 HIT:    7418655 MISS:    7372582 MSHR_MERGE:    1791553
cpu0->cpu0_L1I LOAD         ACCESS:   14791237 HIT:    7418655 MISS:    7372582 MSHR_MERGE:    1791553
cpu0->cpu0_L1I RFO          ACCESS:          0 HIT:          0 MISS:          0 MSHR_MERGE:          0
cpu0->cpu0_L1I PREFETCH     ACCESS:          0 HIT:          0 MISS:          0 MSHR_MERGE:          0
cpu0->cpu0_L1I WRITE        ACCESS:          0 HIT:          0 MISS:          0 MSHR_MERGE:          0
cpu0->cpu0_L1I TRANSLATION  ACCESS:          0 HIT:          0 MISS:          0 MSHR_MERGE:          0
cpu0->cpu0_L1I PREFETCH REQUESTED:          0 ISSUED:          0 USEFUL:          0 USELESS:          0
cpu0->cpu0_L1I AVERAGE MISS LATENCY: 14.75 cycles
cpu0->cpu0_L1D TOTAL        ACCESS:   29545186 HIT:   24887486 MISS:    4657700 MSHR_MERGE:    1722557
cpu0->cpu0_L1D LOAD         ACCESS:   16497345 HIT:   13691124 MISS:    2806221 MSHR_MERGE:     531398
cpu0->cpu0_L1D RFO          ACCESS:          0 HIT:          0 MISS:          0 MSHR_MERGE:          0
cpu0->cpu0_L1D PREFETCH     ACCESS:          0 HIT:          0 MISS:          0 MSHR_MERGE:          0
cpu0->cpu0_L1D WRITE        ACCESS:   12980242 HIT:   11191692 MISS:    1788550 MSHR_MERGE:    1191031
cpu0->cpu0_L1D TRANSLATION  ACCESS:      67599 HIT:       4670 MISS:      62929 MSHR_MERGE:        128
cpu0->cpu0_L1D PREFETCH REQUESTED:          0 ISSUED:          0 USEFUL:          0 USELESS:          0
cpu0->cpu0_L1D AVERAGE MISS LATENCY: 20.11 cycles
cpu0->cpu0_ITLB TOTAL        ACCESS:   12149631 HIT:   10092760 MISS:    2056871 MSHR_MERGE:    1032441
cpu0->cpu0_ITLB LOAD         ACCESS:   12149631 HIT:   10092760 MISS:    2056871 MSHR_MERGE:    1032441
cpu0->cpu0_ITLB RFO          ACCESS:          0 HIT:          0 MISS:          0 MSHR_MERGE:          0
cpu0->cpu0_ITLB PREFETCH     ACCESS:          0 HIT:          0 MISS:          0 MSHR_MERGE:          0
cpu0->cpu0_ITLB WRITE        ACCESS:          0 HIT:          0 MISS:          0 MSHR_MERGE:          0
cpu0->cpu0_ITLB TRANSLATION  ACCESS:          0 HIT:          0 MISS:          0 MSHR_MERGE:          0
cpu0->cpu0_ITLB PREFETCH REQUESTED:          0 ISSUED:          0 USEFUL:          0 USELESS:          0
cpu0->cpu0_ITLB AVERAGE MISS LATENCY: 5.348 cycles
cpu0->cpu0_DTLB TOTAL        ACCESS:   28101397 HIT:   26645194 MISS:    1456203 MSHR_MERGE:     387593
cpu0->cpu0_DTLB LOAD         ACCESS:   28101397 HIT:   26645194 MISS:    1456203 MSHR_MERGE:     387593
cpu0->cpu0_DTLB RFO          ACCESS:          0 HIT:          0 MISS:          0 MSHR_MERGE:          0
cpu0->cpu0_DTLB PREFETCH     ACCESS:          0 HIT:          0 MISS:          0 MSHR_MERGE:          0
cpu0->cpu0_DTLB WRITE        ACCESS:          0 HIT:          0 MISS:          0 MSHR_MERGE:          0
cpu0->cpu0_DTLB TRANSLATION  ACCESS:          0 HIT:          0 MISS:          0 MSHR_MERGE:          0
cpu0->cpu0_DTLB PREFETCH REQUESTED:          0 ISSUED:          0 USEFUL:          0 USELESS:          0
cpu0->cpu0_DTLB AVERAGE MISS LATENCY: 9.614 cycles
cpu0->LLC TOTAL        ACCESS:    1275297 HIT:    1189513 MISS:      85784 MSHR_MERGE:          0
cpu0->LLC LOAD         ACCESS:     964876 HIT:     903114 MISS:      61762 MSHR_MERGE:          0
cpu0->LLC RFO          ACCESS:      94469 HIT:      88401 MISS:       6068 MSHR_MERGE:          0
cpu0->LLC PREFETCH     ACCESS:          0 HIT:          0 MISS:          0 MSHR_MERGE:          0
cpu0->LLC WRITE        ACCESS:     166842 HIT:     166287 MISS:        555 MSHR_MERGE:          0
cpu0->LLC TRANSLATION  ACCESS:      49110 HIT:      31711 MISS:      17399 MSHR_MERGE:          0
cpu0->LLC PREFETCH REQUESTED:          0 ISSUED:          0 USEFUL:          0 USELESS:          0
cpu0->LLC AVERAGE MISS LATENCY: 99.31 cycles

DRAM Statistics

Channel 0 RQ ROW_BUFFER_HIT:       1336
  ROW_BUFFER_MISS:      83893
  AVG DBUS CONGESTED CYCLE: 4.259
Channel 0 WQ ROW_BUFFER_HIT:        703
  ROW_BUFFER_MISS:       6844
  FULL:          0
Channel 0 REFRESHES ISSUED:       7833
[2025-09-16 00:25:11] END   suite=qualcomm_srv trace=srv728_ap (rc=0)
