[2025-09-15 23:55:08] START suite=qualcomm_srv trace=srv86_ap
CMD: ./bin/champsim -w 20000000 -i 100000000 /home/ho/itp_asplos25_AE/traces/qualcomm_srv/srv86_ap.champsimtrace.xz
[VMEM] WARNING: physical memory size is smaller than virtual memory size.

*** ChampSim Multicore Out-of-Order Simulator ***
Warmup Instructions: 20000000
Simulation Instructions: 100000000
Number of CPUs: 1
Page size: 4096

Off-chip DRAM Size: 16 GiB Channels: 1 Width: 64-bit Data Rate: 3205 MT/s
[BTB] WARNING: target of return is a lower address than the corresponding call. This is usually a problem with your trace.
[BTB] WARNING: target of return is a lower address than the corresponding call. This is usually a problem with your trace.
[BTB] WARNING: target of return is a lower address than the corresponding call. This is usually a problem with your trace.
[BTB] WARNING: target of return is a lower address than the corresponding call. This is usually a problem with your trace.
[BTB] WARNING: target of return is a lower address than the corresponding call. This is usually a problem with your trace.
[BTB] WARNING: target of return is a lower address than the corresponding call. This is usually a problem with your trace.
[BTB] WARNING: target of return is a lower address than the corresponding call. This is usually a problem with your trace.
[BTB] WARNING: target of return is a lower address than the corresponding call. This is usually a problem with your trace.
[BTB] WARNING: target of return is a lower address than the corresponding call. This is usually a problem with your trace.
[BTB] WARNING: target of return is a lower address than the corresponding call. This is usually a problem with your trace.
Heartbeat CPU 0 instructions: 10000002 cycles: 2827478 heartbeat IPC: 3.537 cumulative IPC: 3.537 (Simulation time: 00 hr 00 min 39 sec)
Heartbeat CPU 0 instructions: 20000002 cycles: 5445145 heartbeat IPC: 3.82 cumulative IPC: 3.673 (Simulation time: 00 hr 01 min 18 sec)
Warmup finished CPU 0 instructions: 20000002 cycles: 5445145 cumulative IPC: 3.673 (Simulation time: 00 hr 01 min 18 sec)
Warmup complete CPU 0 instructions: 20000002 cycles: 5445145 cumulative IPC: 3.673 (Simulation time: 00 hr 01 min 18 sec)
Heartbeat CPU 0 instructions: 30000006 cycles: 11203652 heartbeat IPC: 1.737 cumulative IPC: 1.737 (Simulation time: 00 hr 02 min 16 sec)
Heartbeat CPU 0 instructions: 40000009 cycles: 16918410 heartbeat IPC: 1.75 cumulative IPC: 1.743 (Simulation time: 00 hr 03 min 13 sec)
Heartbeat CPU 0 instructions: 50000010 cycles: 22565080 heartbeat IPC: 1.771 cumulative IPC: 1.752 (Simulation time: 00 hr 04 min 11 sec)
Heartbeat CPU 0 instructions: 60000012 cycles: 28241756 heartbeat IPC: 1.762 cumulative IPC: 1.755 (Simulation time: 00 hr 05 min 12 sec)
Heartbeat CPU 0 instructions: 70000012 cycles: 33850155 heartbeat IPC: 1.783 cumulative IPC: 1.76 (Simulation time: 00 hr 06 min 13 sec)
Heartbeat CPU 0 instructions: 80000016 cycles: 39454280 heartbeat IPC: 1.784 cumulative IPC: 1.764 (Simulation time: 00 hr 07 min 14 sec)
Heartbeat CPU 0 instructions: 90000016 cycles: 45086550 heartbeat IPC: 1.775 cumulative IPC: 1.766 (Simulation time: 00 hr 08 min 14 sec)
Heartbeat CPU 0 instructions: 100000018 cycles: 50671530 heartbeat IPC: 1.791 cumulative IPC: 1.769 (Simulation time: 00 hr 09 min 14 sec)
*** Reached end of trace: (0, "/home/ho/itp_asplos25_AE/traces/qualcomm_srv/srv86_ap.champsimtrace.xz")
Heartbeat CPU 0 instructions: 110000021 cycles: 56306790 heartbeat IPC: 1.775 cumulative IPC: 1.77 (Simulation time: 00 hr 10 min 14 sec)
Simulation finished CPU 0 instructions: 100000000 cycles: 56486215 cumulative IPC: 1.77 (Simulation time: 00 hr 11 min 13 sec)
Simulation complete CPU 0 instructions: 100000000 cycles: 56486215 cumulative IPC: 1.77 (Simulation time: 00 hr 11 min 13 sec)

ChampSim completed all CPUs

=== Simulation ===
CPU 0 runs /home/ho/itp_asplos25_AE/traces/qualcomm_srv/srv86_ap.champsimtrace.xz

Region of Interest Statistics

CPU 0 cumulative IPC: 1.77 instructions: 100000000 cycles: 56486215
CPU 0 Branch Prediction Accuracy: 97% MPKI: 5.152 Average ROB Occupancy at Mispredict: 72.82
Branch type MPKI
BRANCH_DIRECT_JUMP: 0.00049
BRANCH_INDIRECT: 0.06089
BRANCH_CONDITIONAL: 4.767
BRANCH_DIRECT_CALL: 0.00105
BRANCH_INDIRECT_CALL: 0.3045
BRANCH_RETURN: 0.01849


====Backend Stall Breakdown====
ROB_STALL: 749425
LQ_STALL: 0
SQ_STALL: 48462


====ROB Stall Breakdown====

== Average ==
ADDR_TRANS: 119.55578
REPLAY_LOAD: 36.551624
NON_REPLAY_LOAD: 27.32879

== Total ==
ADDR_TRANS: 58941
REPLAY_LOAD: 24782
NON_REPLAY_LOAD: 665702

== Counts ==
ADDR_TRANS: 493
REPLAY_LOAD: 678
NON_REPLAY_LOAD: 24359

cpu0->cpu0_STLB TOTAL        ACCESS:    2206104 HIT:    2194877 MISS:      11227 MSHR_MERGE:          0
cpu0->cpu0_STLB LOAD         ACCESS:    2206104 HIT:    2194877 MISS:      11227 MSHR_MERGE:          0
cpu0->cpu0_STLB RFO          ACCESS:          0 HIT:          0 MISS:          0 MSHR_MERGE:          0
cpu0->cpu0_STLB PREFETCH     ACCESS:          0 HIT:          0 MISS:          0 MSHR_MERGE:          0
cpu0->cpu0_STLB WRITE        ACCESS:          0 HIT:          0 MISS:          0 MSHR_MERGE:          0
cpu0->cpu0_STLB TRANSLATION  ACCESS:          0 HIT:          0 MISS:          0 MSHR_MERGE:          0
cpu0->cpu0_STLB PREFETCH REQUESTED:          0 ISSUED:          0 USEFUL:          0 USELESS:          0
cpu0->cpu0_STLB AVERAGE MISS LATENCY: 291.9 cycles
cpu0->cpu0_L2C TOTAL        ACCESS:    9021430 HIT:    8638135 MISS:     383295 MSHR_MERGE:          0
cpu0->cpu0_L2C LOAD         ACCESS:    8445378 HIT:    8134916 MISS:     310462 MSHR_MERGE:          0
cpu0->cpu0_L2C RFO          ACCESS:     105712 HIT:      56268 MISS:      49444 MSHR_MERGE:          0
cpu0->cpu0_L2C PREFETCH     ACCESS:          0 HIT:          0 MISS:          0 MSHR_MERGE:          0
cpu0->cpu0_L2C WRITE        ACCESS:     445510 HIT:     444385 MISS:       1125 MSHR_MERGE:          0
cpu0->cpu0_L2C TRANSLATION  ACCESS:      24830 HIT:       2566 MISS:      22264 MSHR_MERGE:          0
cpu0->cpu0_L2C PREFETCH REQUESTED:          0 ISSUED:          0 USEFUL:          0 USELESS:          0
cpu0->cpu0_L2C AVERAGE MISS LATENCY: 40.82 cycles
cpu0->cpu0_L1I TOTAL        ACCESS:   17269857 HIT:    6343752 MISS:   10926105 MSHR_MERGE:    3213662
cpu0->cpu0_L1I LOAD         ACCESS:   17269857 HIT:    6343752 MISS:   10926105 MSHR_MERGE:    3213662
cpu0->cpu0_L1I RFO          ACCESS:          0 HIT:          0 MISS:          0 MSHR_MERGE:          0
cpu0->cpu0_L1I PREFETCH     ACCESS:          0 HIT:          0 MISS:          0 MSHR_MERGE:          0
cpu0->cpu0_L1I WRITE        ACCESS:          0 HIT:          0 MISS:          0 MSHR_MERGE:          0
cpu0->cpu0_L1I TRANSLATION  ACCESS:          0 HIT:          0 MISS:          0 MSHR_MERGE:          0
cpu0->cpu0_L1I PREFETCH REQUESTED:          0 ISSUED:          0 USEFUL:          0 USELESS:          0
cpu0->cpu0_L1I AVERAGE MISS LATENCY: 11.31 cycles
cpu0->cpu0_L1D TOTAL        ACCESS:   26820646 HIT:   25348239 MISS:    1472407 MSHR_MERGE:     608928
cpu0->cpu0_L1D LOAD         ACCESS:   14597700 HIT:   13439961 MISS:    1157739 MSHR_MERGE:     424802
cpu0->cpu0_L1D RFO          ACCESS:          0 HIT:          0 MISS:          0 MSHR_MERGE:          0
cpu0->cpu0_L1D PREFETCH     ACCESS:          0 HIT:          0 MISS:          0 MSHR_MERGE:          0
cpu0->cpu0_L1D WRITE        ACCESS:   12196573 HIT:   11907469 MISS:     289104 MSHR_MERGE:     183392
cpu0->cpu0_L1D TRANSLATION  ACCESS:      26373 HIT:        809 MISS:      25564 MSHR_MERGE:        734
cpu0->cpu0_L1D PREFETCH REQUESTED:          0 ISSUED:          0 USEFUL:          0 USELESS:          0
cpu0->cpu0_L1D AVERAGE MISS LATENCY: 30.07 cycles
cpu0->cpu0_ITLB TOTAL        ACCESS:   13901886 HIT:   11192573 MISS:    2709313 MSHR_MERGE:    1500955
cpu0->cpu0_ITLB LOAD         ACCESS:   13901886 HIT:   11192573 MISS:    2709313 MSHR_MERGE:    1500955
cpu0->cpu0_ITLB RFO          ACCESS:          0 HIT:          0 MISS:          0 MSHR_MERGE:          0
cpu0->cpu0_ITLB PREFETCH     ACCESS:          0 HIT:          0 MISS:          0 MSHR_MERGE:          0
cpu0->cpu0_ITLB WRITE        ACCESS:          0 HIT:          0 MISS:          0 MSHR_MERGE:          0
cpu0->cpu0_ITLB TRANSLATION  ACCESS:          0 HIT:          0 MISS:          0 MSHR_MERGE:          0
cpu0->cpu0_ITLB PREFETCH REQUESTED:          0 ISSUED:          0 USEFUL:          0 USELESS:          0
cpu0->cpu0_ITLB AVERAGE MISS LATENCY: 5.035 cycles
cpu0->cpu0_DTLB TOTAL        ACCESS:   25079181 HIT:   23542204 MISS:    1536977 MSHR_MERGE:     539231
cpu0->cpu0_DTLB LOAD         ACCESS:   25079181 HIT:   23542204 MISS:    1536977 MSHR_MERGE:     539231
cpu0->cpu0_DTLB RFO          ACCESS:          0 HIT:          0 MISS:          0 MSHR_MERGE:          0
cpu0->cpu0_DTLB PREFETCH     ACCESS:          0 HIT:          0 MISS:          0 MSHR_MERGE:          0
cpu0->cpu0_DTLB WRITE        ACCESS:          0 HIT:          0 MISS:          0 MSHR_MERGE:          0
cpu0->cpu0_DTLB TRANSLATION  ACCESS:          0 HIT:          0 MISS:          0 MSHR_MERGE:          0
cpu0->cpu0_DTLB PREFETCH REQUESTED:          0 ISSUED:          0 USEFUL:          0 USELESS:          0
cpu0->cpu0_DTLB AVERAGE MISS LATENCY: 8.266 cycles
cpu0->LLC TOTAL        ACCESS:     593875 HIT:     542274 MISS:      51601 MSHR_MERGE:          0
cpu0->LLC LOAD         ACCESS:     310461 HIT:     280676 MISS:      29785 MSHR_MERGE:          0
cpu0->LLC RFO          ACCESS:      49443 HIT:      39708 MISS:       9735 MSHR_MERGE:          0
cpu0->LLC PREFETCH     ACCESS:          0 HIT:          0 MISS:          0 MSHR_MERGE:          0
cpu0->LLC WRITE        ACCESS:     211707 HIT:     211341 MISS:        366 MSHR_MERGE:          0
cpu0->LLC TRANSLATION  ACCESS:      22264 HIT:      10549 MISS:      11715 MSHR_MERGE:          0
cpu0->LLC PREFETCH REQUESTED:          0 ISSUED:          0 USEFUL:          0 USELESS:          0
cpu0->LLC AVERAGE MISS LATENCY: 84.05 cycles

DRAM Statistics

Channel 0 RQ ROW_BUFFER_HIT:        653
  ROW_BUFFER_MISS:      50568
  AVG DBUS CONGESTED CYCLE: 4.897
Channel 0 WQ ROW_BUFFER_HIT:        762
  ROW_BUFFER_MISS:      12509
  FULL:          0
Channel 0 REFRESHES ISSUED:       4707
[2025-09-16 00:06:21] END   suite=qualcomm_srv trace=srv86_ap (rc=0)
